/*---------------------------------------------------------------------------*\
| =========                 |                                                 |
| \\      /  F ield         | OpenFOAM: The Open Source CFD Toolbox           |
|  \\    /   O peration     | Version:  2106                                  |
|   \\  /    A nd           | Website:  www.openfoam.com                      |
|    \\/     M anipulation  |                                                 |
\*---------------------------------------------------------------------------*/
Build  : _7b82832f-20210625 OPENFOAM=2106
Arch   : "LSB;label=32;scalar=64"
Exec   : polymerSolidFoam
Date   : May 26 2022
Time   : 09:55:57
Host   : d98e8eba3479
PID    : 740
I/O    : uncollated
Case   : /home/openfoam/run/SLA/new_SLA
nProcs : 1
trapFpe: Floating point exception trapping enabled (FOAM_SIGFPE).
fileModificationChecking : Monitoring run-time modified files using timeStampMaster (fileModificationSkew 5, maxFileModificationPolls 20)
allowSystemOperations : Allowing user-supplied system call operations

// * * * * * * * * * * * * * * * * * * * * * * * * * * * * * * * * * * * * * //
Create time

Overriding DebugSwitches according to controlDict
    solutionControl 0;

Create mesh for time = 0


SIMPLE: convergence criteria
    field D	 tolerance 1e-05

Reading polymerProperties
 -- Laser exposure = 13989.2
Reading field D

Calculating mechanical properties

NUMBER OF LAYERS: 18 [0 0 0 0 0 0 0] 18

LAYER NUMBER: 1
Calculating polymerization field

Calculating Young's modulus

Calculating Lame's coefficients

Calculating explicit part of div(sigma) divSigmaExp


SIMPLE: convergence criteria
    field D	 tolerance 1e-05


Calculating displacement field

Iteration: 1

creating matrix for the layer 1
GAMG:  Solving for Dx, Initial residual = 1, Final residual = 0.00138985, No Iterations 1
GAMG:  Solving for Dy, Initial residual = 1, Final residual = 0.075678, No Iterations 1
GAMG:  Solving for Dz, Initial residual = 1, Final residual = 0.00919694, No Iterations 1
ExecutionTime = 0.18 s  ClockTime = 0 s

Iteration: 2

creating matrix for the layer 1
GAMG:  Solving for Dx, Initial residual = 0.136745, Final residual = 0.00219258, No Iterations 1
GAMG:  Solving for Dy, Initial residual = 0.259204, Final residual = 0.00750037, No Iterations 1
GAMG:  Solving for Dz, Initial residual = 0.0176186, Final residual = 0.000600738, No Iterations 1
ExecutionTime = 0.2 s  ClockTime = 0 s

Iteration: 3

creating matrix for the layer 1
GAMG:  Solving for Dx, Initial residual = 0.118877, Final residual = 0.000971157, No Iterations 1
GAMG:  Solving for Dy, Initial residual = 0.111908, Final residual = 0.00452355, No Iterations 1
GAMG:  Solving for Dz, Initial residual = 0.00743679, Final residual = 0.000218771, No Iterations 1
ExecutionTime = 0.21 s  ClockTime = 0 s

Iteration: 4

creating matrix for the layer 1
GAMG:  Solving for Dx, Initial residual = 0.059622, Final residual = 0.00073194, No Iterations 1
GAMG:  Solving for Dy, Initial residual = 0.0633146, Final residual = 0.00229348, No Iterations 1
GAMG:  Solving for Dz, Initial residual = 0.00461449, Final residual = 0.000165918, No Iterations 1
ExecutionTime = 0.21 s  ClockTime = 0 s

Iteration: 5

creating matrix for the layer 1
GAMG:  Solving for Dx, Initial residual = 0.049171, Final residual = 0.00047031, No Iterations 1
GAMG:  Solving for Dy, Initial residual = 0.0476814, Final residual = 0.0018315, No Iterations 1
GAMG:  Solving for Dz, Initial residual = 0.00349376, Final residual = 0.000128159, No Iterations 1
ExecutionTime = 0.22 s  ClockTime = 0 s

Iteration: 6

creating matrix for the layer 1
GAMG:  Solving for Dx, Initial residual = 0.0376308, Final residual = 0.00038621, No Iterations 1
GAMG:  Solving for Dy, Initial residual = 0.0358827, Final residual = 0.00127142, No Iterations 1
GAMG:  Solving for Dz, Initial residual = 0.00309697, Final residual = 0.000111447, No Iterations 1
ExecutionTime = 0.23 s  ClockTime = 0 s

Iteration: 7

creating matrix for the layer 1
GAMG:  Solving for Dx, Initial residual = 0.0320607, Final residual = 0.000296487, No Iterations 1
GAMG:  Solving for Dy, Initial residual = 0.0288773, Final residual = 0.00102856, No Iterations 1
GAMG:  Solving for Dz, Initial residual = 0.00264294, Final residual = 9.5771e-05, No Iterations 1
ExecutionTime = 0.24 s  ClockTime = 0 s

Iteration: 8

creating matrix for the layer 1
GAMG:  Solving for Dx, Initial residual = 0.0268737, Final residual = 0.000253627, No Iterations 1
GAMG:  Solving for Dy, Initial residual = 0.0230711, Final residual = 0.000804333, No Iterations 1
GAMG:  Solving for Dz, Initial residual = 0.00236477, Final residual = 8.49995e-05, No Iterations 1
ExecutionTime = 0.25 s  ClockTime = 0 s

Iteration: 9

creating matrix for the layer 1
GAMG:  Solving for Dx, Initial residual = 0.0232435, Final residual = 0.000212997, No Iterations 1
GAMG:  Solving for Dy, Initial residual = 0.0193137, Final residual = 0.000672885, No Iterations 1
GAMG:  Solving for Dz, Initial residual = 0.00207184, Final residual = 7.48085e-05, No Iterations 1
ExecutionTime = 0.25 s  ClockTime = 0 s

Iteration: 10

creating matrix for the layer 1
GAMG:  Solving for Dx, Initial residual = 0.0201691, Final residual = 0.000186811, No Iterations 1
GAMG:  Solving for Dy, Initial residual = 0.0160378, Final residual = 0.000558157, No Iterations 1
GAMG:  Solving for Dz, Initial residual = 0.00185226, Final residual = 6.65022e-05, No Iterations 1
ExecutionTime = 0.26 s  ClockTime = 0 s

Iteration: 11

creating matrix for the layer 1
GAMG:  Solving for Dx, Initial residual = 0.0176864, Final residual = 0.000163582, No Iterations 1
GAMG:  Solving for Dy, Initial residual = 0.0135987, Final residual = 0.000477373, No Iterations 1
GAMG:  Solving for Dz, Initial residual = 0.0016353, Final residual = 5.88736e-05, No Iterations 1
ExecutionTime = 0.28 s  ClockTime = 0 s

Iteration: 12

creating matrix for the layer 1
GAMG:  Solving for Dx, Initial residual = 0.0155584, Final residual = 0.000145053, No Iterations 1
GAMG:  Solving for Dy, Initial residual = 0.0115406, Final residual = 0.000407034, No Iterations 1
GAMG:  Solving for Dz, Initial residual = 0.00145885, Final residual = 5.23204e-05, No Iterations 1
ExecutionTime = 0.29 s  ClockTime = 0 s

Iteration: 13

creating matrix for the layer 1
GAMG:  Solving for Dx, Initial residual = 0.0137655, Final residual = 0.000129062, No Iterations 1
GAMG:  Solving for Dy, Initial residual = 0.0098856, Final residual = 0.000351166, No Iterations 1
GAMG:  Solving for Dz, Initial residual = 0.00129232, Final residual = 4.6376e-05, No Iterations 1
ExecutionTime = 0.29 s  ClockTime = 0 s

Iteration: 14

creating matrix for the layer 1
GAMG:  Solving for Dx, Initial residual = 0.0122117, Final residual = 0.000115167, No Iterations 1
GAMG:  Solving for Dy, Initial residual = 0.00849557, Final residual = 0.000302761, No Iterations 1
GAMG:  Solving for Dz, Initial residual = 0.00114947, Final residual = 4.11545e-05, No Iterations 1
ExecutionTime = 0.3 s  ClockTime = 0 s

Iteration: 15

creating matrix for the layer 1
GAMG:  Solving for Dx, Initial residual = 0.0108722, Final residual = 0.000103239, No Iterations 1
GAMG:  Solving for Dy, Initial residual = 0.00733193, Final residual = 0.00026269, No Iterations 1
GAMG:  Solving for Dz, Initial residual = 0.0010188, Final residual = 3.64587e-05, No Iterations 1
ExecutionTime = 0.31 s  ClockTime = 0 s

Iteration: 16

creating matrix for the layer 1
GAMG:  Solving for Dx, Initial residual = 0.00970092, Final residual = 9.26281e-05, No Iterations 1
GAMG:  Solving for Dy, Initial residual = 0.00634437, Final residual = 0.000227973, No Iterations 1
GAMG:  Solving for Dz, Initial residual = 0.000904334, Final residual = 3.23062e-05, No Iterations 1
ExecutionTime = 0.32 s  ClockTime = 0 s

Iteration: 17

creating matrix for the layer 1
GAMG:  Solving for Dx, Initial residual = 0.00867739, Final residual = 8.33245e-05, No Iterations 1
GAMG:  Solving for Dy, Initial residual = 0.00550446, Final residual = 0.000198532, No Iterations 1
GAMG:  Solving for Dz, Initial residual = 0.000801264, Final residual = 2.85954e-05, No Iterations 1
ExecutionTime = 0.32 s  ClockTime = 0 s

Iteration: 18

creating matrix for the layer 1
GAMG:  Solving for Dx, Initial residual = 0.00777604, Final residual = 7.50334e-05, No Iterations 1
GAMG:  Solving for Dy, Initial residual = 0.00478487, Final residual = 0.000173003, No Iterations 1
GAMG:  Solving for Dz, Initial residual = 0.000710251, Final residual = 2.53074e-05, No Iterations 1
ExecutionTime = 0.33 s  ClockTime = 0 s

Iteration: 19

creating matrix for the layer 1
GAMG:  Solving for Dx, Initial residual = 0.00698119, Final residual = 6.76796e-05, No Iterations 1
GAMG:  Solving for Dy, Initial residual = 0.00416697, Final residual = 0.000151063, No Iterations 1
GAMG:  Solving for Dz, Initial residual = 0.000628958, Final residual = 2.23817e-05, No Iterations 1
ExecutionTime = 0.34 s  ClockTime = 0 s

Iteration: 20

creating matrix for the layer 1
GAMG:  Solving for Dx, Initial residual = 0.00627683, Final residual = 6.11051e-05, No Iterations 1
GAMG:  Solving for Dy, Initial residual = 0.00363398, Final residual = 0.000131998, No Iterations 1
GAMG:  Solving for Dz, Initial residual = 0.000556999, Final residual = 1.97894e-05, No Iterations 1
ExecutionTime = 0.35 s  ClockTime = 1 s

Iteration: 21

creating matrix for the layer 1
GAMG:  Solving for Dx, Initial residual = 0.00565153, Final residual = 5.52328e-05, No Iterations 1
GAMG:  Solving for Dy, Initial residual = 0.00317325, Final residual = 0.000115482, No Iterations 1
GAMG:  Solving for Dz, Initial residual = 0.000493001, Final residual = 1.74894e-05, No Iterations 1
ExecutionTime = 0.36 s  ClockTime = 1 s

Iteration: 22

creating matrix for the layer 1
GAMG:  Solving for Dx, Initial residual = 0.00509466, Final residual = 4.99654e-05, No Iterations 1
GAMG:  Solving for Dy, Initial residual = 0.00277384, Final residual = 0.000101099, No Iterations 1
GAMG:  Solving for Dz, Initial residual = 0.000436323, Final residual = 1.54526e-05, No Iterations 1
ExecutionTime = 0.37 s  ClockTime = 1 s

Iteration: 23

creating matrix for the layer 1
GAMG:  Solving for Dx, Initial residual = 0.00459776, Final residual = 4.52393e-05, No Iterations 1
GAMG:  Solving for Dy, Initial residual = 0.00242694, Final residual = 8.85807e-05, No Iterations 1
GAMG:  Solving for Dz, Initial residual = 0.000386035, Final residual = 1.36485e-05, No Iterations 1
ExecutionTime = 0.38 s  ClockTime = 1 s

Iteration: 24

creating matrix for the layer 1
GAMG:  Solving for Dx, Initial residual = 0.00415334, Final residual = 4.09891e-05, No Iterations 1
GAMG:  Solving for Dy, Initial residual = 0.00212501, Final residual = 7.76529e-05, No Iterations 1
GAMG:  Solving for Dz, Initial residual = 0.00034151, Final residual = 1.20523e-05, No Iterations 1
ExecutionTime = 0.39 s  ClockTime = 1 s

Iteration: 25

creating matrix for the layer 1
GAMG:  Solving for Dx, Initial residual = 0.00375521, Final residual = 3.7162e-05, No Iterations 1
GAMG:  Solving for Dy, Initial residual = 0.00186191, Final residual = 6.81131e-05, No Iterations 1
GAMG:  Solving for Dz, Initial residual = 0.000302062, Final residual = 1.06402e-05, No Iterations 1
ExecutionTime = 0.4 s  ClockTime = 1 s

Iteration: 26

creating matrix for the layer 1
GAMG:  Solving for Dx, Initial residual = 0.00339791, Final residual = 3.37098e-05, No Iterations 1
GAMG:  Solving for Dy, Initial residual = 0.00163232, Final residual = 5.97702e-05, No Iterations 1
GAMG:  Solving for Dz, Initial residual = 0.000267148, Final residual = 9.39176e-06, No Iterations 1
ExecutionTime = 0.4 s  ClockTime = 1 s

Iteration: 27

creating matrix for the layer 1
GAMG:  Solving for Dx, Initial residual = 0.00307681, Final residual = 3.05935e-05, No Iterations 1
GAMG:  Solving for Dy, Initial residual = 0.00143175, Final residual = 5.2471e-05, No Iterations 1
GAMG:  Solving for Dz, Initial residual = 0.000236243, Final residual = 8.28837e-06, No Iterations 1
ExecutionTime = 0.41 s  ClockTime = 1 s

Iteration: 28

creating matrix for the layer 1
GAMG:  Solving for Dx, Initial residual = 0.00278785, Final residual = 2.77769e-05, No Iterations 1
GAMG:  Solving for Dy, Initial residual = 0.00125639, Final residual = 4.60779e-05, No Iterations 1
GAMG:  Solving for Dz, Initial residual = 0.000208903, Final residual = 7.31359e-06, No Iterations 1
ExecutionTime = 0.42 s  ClockTime = 1 s

Iteration: 29

creating matrix for the layer 1
GAMG:  Solving for Dx, Initial residual = 0.00252751, Final residual = 2.52289e-05, No Iterations 1
GAMG:  Solving for Dy, Initial residual = 0.00110293, Final residual = 4.04759e-05, No Iterations 1
GAMG:  Solving for Dz, Initial residual = 0.000184715, Final residual = 6.45252e-06, No Iterations 1
ExecutionTime = 0.43 s  ClockTime = 1 s

Iteration: 30

creating matrix for the layer 1
GAMG:  Solving for Dx, Initial residual = 0.00229268, Final residual = 2.29222e-05, No Iterations 1
GAMG:  Solving for Dy, Initial residual = 0.000968513, Final residual = 3.55636e-05, No Iterations 1
GAMG:  Solving for Dz, Initial residual = 0.000163324, Final residual = 5.69211e-06, No Iterations 1
ExecutionTime = 0.44 s  ClockTime = 1 s

Iteration: 31

creating matrix for the layer 1
GAMG:  Solving for Dx, Initial residual = 0.00208068, Final residual = 2.08325e-05, No Iterations 1
GAMG:  Solving for Dy, Initial residual = 0.000850697, Final residual = 3.12545e-05, No Iterations 1
GAMG:  Solving for Dz, Initial residual = 0.000144407, Final residual = 5.02073e-06, No Iterations 1
ExecutionTime = 0.45 s  ClockTime = 1 s

Iteration: 32

creating matrix for the layer 1
GAMG:  Solving for Dx, Initial residual = 0.0018891, Final residual = 1.89377e-05, No Iterations 1
GAMG:  Solving for Dy, Initial residual = 0.000747409, Final residual = 2.74725e-05, No Iterations 1
GAMG:  Solving for Dz, Initial residual = 0.000127682, Final residual = 4.42808e-06, No Iterations 1
ExecutionTime = 0.47 s  ClockTime = 1 s

Iteration: 33

creating matrix for the layer 1
GAMG:  Solving for Dx, Initial residual = 0.00171584, Final residual = 1.72191e-05, No Iterations 1
GAMG:  Solving for Dy, Initial residual = 0.00065679, Final residual = 2.4152e-05, No Iterations 1
GAMG:  Solving for Dz, Initial residual = 0.000112895, Final residual = 3.90503e-06, No Iterations 1
ExecutionTime = 0.48 s  ClockTime = 1 s

Iteration: 34

creating matrix for the layer 1
GAMG:  Solving for Dx, Initial residual = 0.00155902, Final residual = 1.56635e-05, No Iterations 1
GAMG:  Solving for Dy, Initial residual = 0.000577253, Final residual = 2.12356e-05, No Iterations 1
GAMG:  Solving for Dz, Initial residual = 9.98233e-05, Final residual = 3.44347e-06, No Iterations 1
ExecutionTime = 0.48 s  ClockTime = 1 s

Iteration: 35

creating matrix for the layer 1
GAMG:  Solving for Dx, Initial residual = 0.001417, Final residual = 1.42565e-05, No Iterations 1
GAMG:  Solving for Dy, Initial residual = 0.000507434, Final residual = 1.86734e-05, No Iterations 1
GAMG:  Solving for Dz, Initial residual = 8.82681e-05, Final residual = 3.03624e-06, No Iterations 1
ExecutionTime = 0.49 s  ClockTime = 1 s

Iteration: 36

creating matrix for the layer 1
GAMG:  Solving for Dx, Initial residual = 0.0012883, Final residual = 1.29774e-05, No Iterations 1
GAMG:  Solving for Dy, Initial residual = 0.000446107, Final residual = 1.64218e-05, No Iterations 1
GAMG:  Solving for Dz, Initial residual = 7.80541e-05, Final residual = 2.67699e-06, No Iterations 1
ExecutionTime = 0.5 s  ClockTime = 1 s

Iteration: 37

creating matrix for the layer 1
GAMG:  Solving for Dx, Initial residual = 0.00117161, Final residual = 1.18143e-05, No Iterations 1
GAMG:  Solving for Dy, Initial residual = 0.000392226, Final residual = 1.44429e-05, No Iterations 1
GAMG:  Solving for Dz, Initial residual = 6.90258e-05, Final residual = 2.3601e-06, No Iterations 1
ExecutionTime = 0.51 s  ClockTime = 1 s

Iteration: 38

creating matrix for the layer 1
GAMG:  Solving for Dx, Initial residual = 0.00106575, Final residual = 1.0757e-05, No Iterations 1
GAMG:  Solving for Dy, Initial residual = 0.000344876, Final residual = 1.27032e-05, No Iterations 1
GAMG:  Solving for Dz, Initial residual = 6.10458e-05, Final residual = 2.0806e-06, No Iterations 1
ExecutionTime = 0.52 s  ClockTime = 1 s

Iteration: 39

creating matrix for the layer 1
GAMG:  Solving for Dx, Initial residual = 0.000969681, Final residual = 9.79517e-06, No Iterations 1
GAMG:  Solving for Dy, Initial residual = 0.000303259, Final residual = 1.11735e-05, No Iterations 1
GAMG:  Solving for Dz, Initial residual = 5.39922e-05, Final residual = 1.8341e-06, No Iterations 1
ExecutionTime = 0.53 s  ClockTime = 1 s

Iteration: 40

creating matrix for the layer 1
GAMG:  Solving for Dx, Initial residual = 0.00088245, Final residual = 8.91988e-06, No Iterations 1
GAMG:  Solving for Dy, Initial residual = 0.00026669, Final residual = 9.82845e-06, No Iterations 1
GAMG:  Solving for Dz, Initial residual = 4.77575e-05, Final residual = 1.61673e-06, No Iterations 1
ExecutionTime = 0.54 s  ClockTime = 1 s

Iteration: 41

creating matrix for the layer 1
GAMG:  Solving for Dx, Initial residual = 0.000803219, Final residual = 8.12323e-06, No Iterations 1
GAMG:  Solving for Dy, Initial residual = 0.000234538, Final residual = 8.64581e-06, No Iterations 1
GAMG:  Solving for Dz, Initial residual = 4.22464e-05, Final residual = 1.42506e-06, No Iterations 1
ExecutionTime = 0.54 s  ClockTime = 1 s

Iteration: 42

creating matrix for the layer 1
GAMG:  Solving for Dx, Initial residual = 0.00073123, Final residual = 7.39829e-06, No Iterations 1
GAMG:  Solving for Dy, Initial residual = 0.000206266, Final residual = 7.60579e-06, No Iterations 1
GAMG:  Solving for Dz, Initial residual = 3.73748e-05, Final residual = 1.25607e-06, No Iterations 1
ExecutionTime = 0.55 s  ClockTime = 1 s

Iteration: 43

creating matrix for the layer 1
GAMG:  Solving for Dx, Initial residual = 0.000665801, Final residual = 6.7383e-06, No Iterations 1
GAMG:  Solving for Dy, Initial residual = 0.000181403, Final residual = 6.69099e-06, No Iterations 1
GAMG:  Solving for Dz, Initial residual = 3.30683e-05, Final residual = 1.10708e-06, No Iterations 1
ExecutionTime = 0.56 s  ClockTime = 1 s

Iteration: 44

creating matrix for the layer 1
GAMG:  Solving for Dx, Initial residual = 0.000606316, Final residual = 6.13731e-06, No Iterations 1
GAMG:  Solving for Dy, Initial residual = 0.000159541, Final residual = 5.88624e-06, No Iterations 1
GAMG:  Solving for Dz, Initial residual = 2.92612e-05, Final residual = 9.75722e-07, No Iterations 1
ExecutionTime = 0.57 s  ClockTime = 1 s

Iteration: 45

creating matrix for the layer 1
GAMG:  Solving for Dx, Initial residual = 0.000552221, Final residual = 5.59004e-06, No Iterations 1
GAMG:  Solving for Dy, Initial residual = 0.00014033, Final residual = 5.17828e-06, No Iterations 1
GAMG:  Solving for Dz, Initial residual = 2.58953e-05, Final residual = 8.59923e-07, No Iterations 1
ExecutionTime = 0.58 s  ClockTime = 1 s

Iteration: 46

creating matrix for the layer 1
GAMG:  Solving for Dx, Initial residual = 0.000503013, Final residual = 5.09163e-06, No Iterations 1
GAMG:  Solving for Dy, Initial residual = 0.000123435, Final residual = 4.55557e-06, No Iterations 1
GAMG:  Solving for Dz, Initial residual = 2.29194e-05, Final residual = 7.57843e-07, No Iterations 1
ExecutionTime = 0.59 s  ClockTime = 1 s

Iteration: 47

creating matrix for the layer 1
GAMG:  Solving for Dx, Initial residual = 0.000458243, Final residual = 4.63769e-06, No Iterations 1
GAMG:  Solving for Dy, Initial residual = 0.000108577, Final residual = 4.00783e-06, No Iterations 1
GAMG:  Solving for Dz, Initial residual = 2.02879e-05, Final residual = 6.67862e-07, No Iterations 1
ExecutionTime = 0.6 s  ClockTime = 1 s

Iteration: 48

creating matrix for the layer 1
GAMG:  Solving for Dx, Initial residual = 0.000417501, Final residual = 4.22424e-06, No Iterations 1
GAMG:  Solving for Dy, Initial residual = 9.55341e-05, Final residual = 3.52594e-06, No Iterations 1
GAMG:  Solving for Dz, Initial residual = 1.79609e-05, Final residual = 5.88549e-07, No Iterations 1
ExecutionTime = 0.6 s  ClockTime = 1 s

Iteration: 49

creating matrix for the layer 1
GAMG:  Solving for Dx, Initial residual = 0.000380418, Final residual = 3.84767e-06, No Iterations 1
GAMG:  Solving for Dy, Initial residual = 8.40935e-05, Final residual = 3.10191e-06, No Iterations 1
GAMG:  Solving for Dz, Initial residual = 1.59029e-05, Final residual = 5.18644e-07, No Iterations 1
ExecutionTime = 0.61 s  ClockTime = 1 s

Iteration: 50

creating matrix for the layer 1
GAMG:  Solving for Dx, Initial residual = 0.00034666, Final residual = 3.50466e-06, No Iterations 1
GAMG:  Solving for Dy, Initial residual = 7.40494e-05, Final residual = 2.72879e-06, No Iterations 1
GAMG:  Solving for Dz, Initial residual = 1.40828e-05, Final residual = 4.57034e-07, No Iterations 1
ExecutionTime = 0.63 s  ClockTime = 1 s

Iteration: 51

creating matrix for the layer 1
GAMG:  Solving for Dx, Initial residual = 0.000315924, Final residual = 3.19223e-06, No Iterations 1
GAMG:  Solving for Dy, Initial residual = 6.52071e-05, Final residual = 2.40053e-06, No Iterations 1
GAMG:  Solving for Dz, Initial residual = 1.24727e-05, Final residual = 4.02736e-07, No Iterations 1
ExecutionTime = 0.64 s  ClockTime = 1 s

Iteration: 52

creating matrix for the layer 1
GAMG:  Solving for Dx, Initial residual = 0.000287934, Final residual = 2.90763e-06, No Iterations 1
GAMG:  Solving for Dy, Initial residual = 5.74241e-05, Final residual = 2.11216e-06, No Iterations 1
GAMG:  Solving for Dz, Initial residual = 1.10484e-05, Final residual = 3.54931e-07, No Iterations 1
ExecutionTime = 0.65 s  ClockTime = 1 s

Iteration: 53

creating matrix for the layer 1
GAMG:  Solving for Dx, Initial residual = 0.000262443, Final residual = 2.6484e-06, No Iterations 1
GAMG:  Solving for Dy, Initial residual = 5.0571e-05, Final residual = 1.85894e-06, No Iterations 1
GAMG:  Solving for Dz, Initial residual = 9.78834e-06, Final residual = 3.12827e-07, No Iterations 1
ExecutionTime = 0.65 s  ClockTime = 1 s

Iteration: 54

creating matrix for the layer 1
GAMG:  Solving for Dx, Initial residual = 0.000239224, Final residual = 2.41225e-06, No Iterations 1
GAMG:  Solving for Dy, Initial residual = 4.45372e-05, Final residual = 1.63612e-06, No Iterations 1
GAMG:  Solving for Dz, Initial residual = 8.67334e-06, Final residual = 2.75716e-07, No Iterations 1
ExecutionTime = 0.66 s  ClockTime = 1 s

Iteration: 55

creating matrix for the layer 1
GAMG:  Solving for Dx, Initial residual = 0.000218073, Final residual = 2.19716e-06, No Iterations 1
GAMG:  Solving for Dy, Initial residual = 3.92243e-05, Final residual = 1.44001e-06, No Iterations 1
GAMG:  Solving for Dz, Initial residual = 7.68782e-06, Final residual = 2.43007e-07, No Iterations 1
ExecutionTime = 0.67 s  ClockTime = 1 s

Iteration: 56

creating matrix for the layer 1
GAMG:  Solving for Dx, Initial residual = 0.000198803, Final residual = 2.00122e-06, No Iterations 1
GAMG:  Solving for Dy, Initial residual = 3.4548e-05, Final residual = 1.26748e-06, No Iterations 1
GAMG:  Solving for Dz, Initial residual = 6.8158e-06, Final residual = 2.14188e-07, No Iterations 1
ExecutionTime = 0.68 s  ClockTime = 1 s

Iteration: 57

creating matrix for the layer 1
GAMG:  Solving for Dx, Initial residual = 0.000181245, Final residual = 1.82274e-06, No Iterations 1
GAMG:  Solving for Dy, Initial residual = 3.04313e-05, Final residual = 1.11568e-06, No Iterations 1
GAMG:  Solving for Dz, Initial residual = 6.04379e-06, Final residual = 1.88791e-07, No Iterations 1
ExecutionTime = 0.69 s  ClockTime = 1 s

Iteration: 58

creating matrix for the layer 1
GAMG:  Solving for Dx, Initial residual = 0.000165246, Final residual = 1.66022e-06, No Iterations 1
GAMG:  Solving for Dy, Initial residual = 2.68055e-05, Final residual = 9.82406e-07, No Iterations 1
GAMG:  Solving for Dz, Initial residual = 5.36023e-06, Final residual = 1.66411e-07, No Iterations 1
ExecutionTime = 0.71 s  ClockTime = 1 s

Iteration: 59

creating matrix for the layer 1
GAMG:  Solving for Dx, Initial residual = 0.000150666, Final residual = 1.51219e-06, No Iterations 1
GAMG:  Solving for Dy, Initial residual = 2.36122e-05, Final residual = 8.65144e-07, No Iterations 1
GAMG:  Solving for Dz, Initial residual = 4.75839e-06, Final residual = 1.46695e-07, No Iterations 1
ExecutionTime = 0.71 s  ClockTime = 1 s

Iteration: 60

creating matrix for the layer 1
GAMG:  Solving for Dx, Initial residual = 0.000137378, Final residual = 1.37733e-06, No Iterations 1
GAMG:  Solving for Dy, Initial residual = 2.0801e-05, Final residual = 7.61924e-07, No Iterations 1
GAMG:  Solving for Dz, Initial residual = 4.2296e-06, Final residual = 1.29333e-07, No Iterations 1
ExecutionTime = 0.72 s  ClockTime = 1 s

Iteration: 61

creating matrix for the layer 1
GAMG:  Solving for Dx, Initial residual = 0.000125267, Final residual = 1.25449e-06, No Iterations 1
GAMG:  Solving for Dy, Initial residual = 1.83269e-05, Final residual = 6.71092e-07, No Iterations 1
GAMG:  Solving for Dz, Initial residual = 3.76127e-06, Final residual = 1.14028e-07, No Iterations 1
ExecutionTime = 0.72 s  ClockTime = 1 s

Iteration: 62

creating matrix for the layer 1
GAMG:  Solving for Dx, Initial residual = 0.000114228, Final residual = 1.14258e-06, No Iterations 1
GAMG:  Solving for Dy, Initial residual = 1.61508e-05, Final residual = 5.91168e-07, No Iterations 1
GAMG:  Solving for Dz, Initial residual = 3.34562e-06, Final residual = 1.00537e-07, No Iterations 1
ExecutionTime = 0.73 s  ClockTime = 1 s

Iteration: 63

creating matrix for the layer 1
GAMG:  Solving for Dx, Initial residual = 0.000104166, Final residual = 1.04068e-06, No Iterations 1
GAMG:  Solving for Dy, Initial residual = 1.42352e-05, Final residual = 5.20795e-07, No Iterations 1
GAMG:  Solving for Dz, Initial residual = 2.97666e-06, Final residual = 8.86464e-08, No Iterations 1
ExecutionTime = 0.74 s  ClockTime = 1 s

Iteration: 64

creating matrix for the layer 1
GAMG:  Solving for Dx, Initial residual = 9.49926e-05, Final residual = 9.48246e-07, No Iterations 1
GAMG:  Solving for Dy, Initial residual = 1.25492e-05, Final residual = 4.58831e-07, No Iterations 1
GAMG:  Solving for Dz, Initial residual = 2.64906e-06, Final residual = 7.81925e-08, No Iterations 1
ExecutionTime = 0.75 s  ClockTime = 1 s

Iteration: 65

creating matrix for the layer 1
GAMG:  Solving for Dx, Initial residual = 8.663e-05, Final residual = 8.64107e-07, No Iterations 1
GAMG:  Solving for Dy, Initial residual = 1.10696e-05, Final residual = 4.04289e-07, No Iterations 1
GAMG:  Solving for Dz, Initial residual = 2.35813e-06, Final residual = 6.90413e-08, No Iterations 1
ExecutionTime = 0.76 s  ClockTime = 1 s

Iteration: 66

creating matrix for the layer 1
GAMG:  Solving for Dx, Initial residual = 7.90059e-05, Final residual = 7.87434e-07, No Iterations 1
GAMG:  Solving for Dy, Initial residual = 9.77398e-06, Final residual = 3.56375e-07, No Iterations 1
GAMG:  Solving for Dz, Initial residual = 2.0997e-06, Final residual = 6.10571e-08, No Iterations 1
ExecutionTime = 0.76 s  ClockTime = 1 s

Iteration: 67

creating matrix for the layer 1
GAMG:  Solving for Dx, Initial residual = 7.20546e-05, Final residual = 7.17564e-07, No Iterations 1
GAMG:  Solving for Dy, Initial residual = 8.63873e-06, Final residual = 3.14222e-07, No Iterations 1
GAMG:  Solving for Dz, Initial residual = 1.8701e-06, Final residual = 5.40192e-08, No Iterations 1
ExecutionTime = 0.77 s  ClockTime = 1 s

Iteration: 68

creating matrix for the layer 1
GAMG:  Solving for Dx, Initial residual = 6.57167e-05, Final residual = 6.53893e-07, No Iterations 1
GAMG:  Solving for Dy, Initial residual = 7.63805e-06, Final residual = 2.77383e-07, No Iterations 1
GAMG:  Solving for Dz, Initial residual = 1.66607e-06, Final residual = 4.78018e-08, No Iterations 1
ExecutionTime = 0.78 s  ClockTime = 1 s

Iteration: 69

creating matrix for the layer 1
GAMG:  Solving for Dx, Initial residual = 5.99377e-05, Final residual = 5.95872e-07, No Iterations 1
GAMG:  Solving for Dy, Initial residual = 6.75469e-06, Final residual = 2.44982e-07, No Iterations 1
GAMG:  Solving for Dz, Initial residual = 1.4847e-06, Final residual = 4.23082e-08, No Iterations 1
ExecutionTime = 0.79 s  ClockTime = 1 s

Iteration: 70

creating matrix for the layer 1
GAMG:  Solving for Dx, Initial residual = 5.46682e-05, Final residual = 5.43001e-07, No Iterations 1
GAMG:  Solving for Dy, Initial residual = 5.97496e-06, Final residual = 2.16455e-07, No Iterations 1
GAMG:  Solving for Dz, Initial residual = 1.32346e-06, Final residual = 3.74579e-08, No Iterations 1
ExecutionTime = 0.79 s  ClockTime = 1 s

Iteration: 71

creating matrix for the layer 1
GAMG:  Solving for Dx, Initial residual = 4.98631e-05, Final residual = 4.94824e-07, No Iterations 1
GAMG:  Solving for Dy, Initial residual = 5.28612e-06, Final residual = 1.91313e-07, No Iterations 1
GAMG:  Solving for Dz, Initial residual = 1.18006e-06, Final residual = 3.3173e-08, No Iterations 1
ExecutionTime = 0.8 s  ClockTime = 1 s

Iteration: 72

creating matrix for the layer 1
GAMG:  Solving for Dx, Initial residual = 4.54812e-05, Final residual = 4.50968e-07, No Iterations 1
GAMG:  Solving for Dy, Initial residual = 4.67765e-06, Final residual = 1.69159e-07, No Iterations 1
GAMG:  Solving for Dz, Initial residual = 1.05251e-06, Final residual = 2.93844e-08, No Iterations 1
ExecutionTime = 0.81 s  ClockTime = 1 s

Iteration: 73

creating matrix for the layer 1
GAMG:  Solving for Dx, Initial residual = 4.14852e-05, Final residual = 4.1104e-07, No Iterations 1
GAMG:  Solving for Dy, Initial residual = 4.14049e-06, Final residual = 1.49639e-07, No Iterations 1
GAMG:  Solving for Dz, Initial residual = 9.39015e-07, Final residual = 9.39015e-07, No Iterations 0
ExecutionTime = 0.82 s  ClockTime = 1 s

Iteration: 74

creating matrix for the layer 1
GAMG:  Solving for Dx, Initial residual = 3.75344e-05, Final residual = 3.69401e-07, No Iterations 1
GAMG:  Solving for Dy, Initial residual = 3.36316e-06, Final residual = 1.16512e-07, No Iterations 1
GAMG:  Solving for Dz, Initial residual = 1.62244e-06, Final residual = 4.19786e-08, No Iterations 1
ExecutionTime = 0.84 s  ClockTime = 1 s

Iteration: 75

creating matrix for the layer 1
GAMG:  Solving for Dx, Initial residual = 3.45766e-05, Final residual = 3.42923e-07, No Iterations 1
GAMG:  Solving for Dy, Initial residual = 3.59533e-06, Final residual = 1.27003e-07, No Iterations 1
GAMG:  Solving for Dz, Initial residual = 8.23929e-07, Final residual = 8.23929e-07, No Iterations 0
ExecutionTime = 0.84 s  ClockTime = 2 s

Iteration: 76

creating matrix for the layer 1
GAMG:  Solving for Dx, Initial residual = 3.12682e-05, Final residual = 3.06687e-07, No Iterations 1
GAMG:  Solving for Dy, Initial residual = 2.65817e-06, Final residual = 9.27694e-08, No Iterations 1
GAMG:  Solving for Dz, Initial residual = 1.39163e-06, Final residual = 3.66454e-08, No Iterations 1
ExecutionTime = 0.85 s  ClockTime = 2 s

Iteration: 77

creating matrix for the layer 1
GAMG:  Solving for Dx, Initial residual = 2.88032e-05, Final residual = 2.85476e-07, No Iterations 1
GAMG:  Solving for Dy, Initial residual = 2.93201e-06, Final residual = 1.02419e-07, No Iterations 1
GAMG:  Solving for Dz, Initial residual = 6.82494e-07, Final residual = 6.82494e-07, No Iterations 0
ExecutionTime = 0.86 s  ClockTime = 2 s

Iteration: 78

creating matrix for the layer 1
GAMG:  Solving for Dx, Initial residual = 2.60399e-05, Final residual = 2.54953e-07, No Iterations 1
GAMG:  Solving for Dy, Initial residual = 2.11126e-06, Final residual = 7.35094e-08, No Iterations 1
GAMG:  Solving for Dz, Initial residual = 1.13715e-06, Final residual = 3.00026e-08, No Iterations 1
ExecutionTime = 0.86 s  ClockTime = 2 s

Iteration: 79

creating matrix for the layer 1
GAMG:  Solving for Dx, Initial residual = 2.39833e-05, Final residual = 2.37506e-07, No Iterations 1
GAMG:  Solving for Dy, Initial residual = 2.35753e-06, Final residual = 8.17729e-08, No Iterations 1
GAMG:  Solving for Dz, Initial residual = 5.53515e-07, Final residual = 5.53515e-07, No Iterations 0
ExecutionTime = 0.87 s  ClockTime = 2 s

Iteration: 80

creating matrix for the layer 1
GAMG:  Solving for Dx, Initial residual = 2.1682e-05, Final residual = 2.1203e-07, No Iterations 1
GAMG:  Solving for Dy, Initial residual = 1.67967e-06, Final residual = 5.82762e-08, No Iterations 1
GAMG:  Solving for Dz, Initial residual = 9.20156e-07, Final residual = 9.20156e-07, No Iterations 0
ExecutionTime = 0.88 s  ClockTime = 2 s

Iteration: 81

creating matrix for the layer 1
GAMG:  Solving for Dx, Initial residual = 1.96371e-05, Final residual = 1.91685e-07, No Iterations 1
GAMG:  Solving for Dy, Initial residual = 1.3812e-06, Final residual = 4.65948e-08, No Iterations 1
GAMG:  Solving for Dz, Initial residual = 1.21595e-06, Final residual = 3.05602e-08, No Iterations 1
ExecutionTime = 0.89 s  ClockTime = 2 s

Iteration: 82

creating matrix for the layer 1
GAMG:  Solving for Dx, Initial residual = 1.82539e-05, Final residual = 1.81062e-07, No Iterations 1
GAMG:  Solving for Dy, Initial residual = 1.85025e-06, Final residual = 6.58421e-08, No Iterations 1
GAMG:  Solving for Dz, Initial residual = 4.48413e-07, Final residual = 4.48413e-07, No Iterations 0
ExecutionTime = 0.89 s  ClockTime = 2 s

Iteration: 83

creating matrix for the layer 1
GAMG:  Solving for Dx, Initial residual = 1.64915e-05, Final residual = 1.60857e-07, No Iterations 1
GAMG:  Solving for Dy, Initial residual = 1.20192e-06, Final residual = 4.20729e-08, No Iterations 1
GAMG:  Solving for Dz, Initial residual = 7.23627e-07, Final residual = 7.23627e-07, No Iterations 0
ExecutionTime = 0.9 s  ClockTime = 2 s

Iteration: 84

creating matrix for the layer 1
GAMG:  Solving for Dx, Initial residual = 1.49307e-05, Final residual = 1.45469e-07, No Iterations 1
GAMG:  Solving for Dy, Initial residual = 9.84973e-07, Final residual = 9.84973e-07, No Iterations 0
GAMG:  Solving for Dz, Initial residual = 9.37181e-07, Final residual = 9.37181e-07, No Iterations 0
ExecutionTime = 0.91 s  ClockTime = 2 s

Iteration: 85

creating matrix for the layer 1
GAMG:  Solving for Dx, Initial residual = 1.35125e-05, Final residual = 1.30805e-07, No Iterations 1
GAMG:  Solving for Dy, Initial residual = 1.10617e-06, Final residual = 4.0922e-08, No Iterations 1
GAMG:  Solving for Dz, Initial residual = 1.0986e-06, Final residual = 2.64499e-08, No Iterations 1
ExecutionTime = 0.92 s  ClockTime = 2 s

Iteration: 86

creating matrix for the layer 1
GAMG:  Solving for Dx, Initial residual = 1.27466e-05, Final residual = 1.26594e-07, No Iterations 1
GAMG:  Solving for Dy, Initial residual = 1.50062e-06, Final residual = 5.41451e-08, No Iterations 1
GAMG:  Solving for Dz, Initial residual = 3.36433e-07, Final residual = 3.36433e-07, No Iterations 0
ExecutionTime = 0.93 s  ClockTime = 2 s

Iteration: 87

creating matrix for the layer 1
GAMG:  Solving for Dx, Initial residual = 1.14735e-05, Final residual = 1.11632e-07, No Iterations 1
GAMG:  Solving for Dy, Initial residual = 9.14209e-07, Final residual = 9.14209e-07, No Iterations 0
GAMG:  Solving for Dz, Initial residual = 5.27511e-07, Final residual = 5.27511e-07, No Iterations 0
ExecutionTime = 0.93 s  ClockTime = 2 s

Iteration: 88

creating matrix for the layer 1
GAMG:  Solving for Dx, Initial residual = 1.03579e-05, Final residual = 1.00284e-07, No Iterations 1
GAMG:  Solving for Dy, Initial residual = 9.89188e-07, Final residual = 9.89188e-07, No Iterations 0
GAMG:  Solving for Dz, Initial residual = 6.44151e-07, Final residual = 6.44151e-07, No Iterations 0
ExecutionTime = 0.94 s  ClockTime = 2 s

Iteration: 89

creating matrix for the layer 1
GAMG:  Solving for Dx, Initial residual = 9.37435e-06, Final residual = 9.02279e-08, No Iterations 1
GAMG:  Solving for Dy, Initial residual = 1.06033e-06, Final residual = 4.04839e-08, No Iterations 1
GAMG:  Solving for Dz, Initial residual = 7.46339e-07, Final residual = 7.46339e-07, No Iterations 0
ExecutionTime = 0.95 s  ClockTime = 2 s


SIMPLE solution converged in 89 iterations


LAYER NUMBER: 2
Calculating polymerization field

Calculating Young's modulus

Calculating Lame's coefficients

Calculating explicit part of div(sigma) divSigmaExp


SIMPLE: convergence criteria
    field D	 tolerance 1e-05


Calculating displacement field

Iteration: 90

creating matrix for the layer 2
GAMG:  Solving for Dx, Initial residual = 0.586214, Final residual = 0.0554271, No Iterations 1
GAMG:  Solving for Dy, Initial residual = 0.708622, Final residual = 0.0752347, No Iterations 1
GAMG:  Solving for Dz, Initial residual = 0.241188, Final residual = 0.0156129, No Iterations 1
ExecutionTime = 1.46 s  ClockTime = 4 s

Iteration: 91

creating matrix for the layer 2
GAMG:  Solving for Dx, Initial residual = 0.33864, Final residual = 0.0287843, No Iterations 1
GAMG:  Solving for Dy, Initial residual = 0.287804, Final residual = 0.0321986, No Iterations 1
GAMG:  Solving for Dz, Initial residual = 0.141172, Final residual = 0.0101129, No Iterations 1
ExecutionTime = 1.47 s  ClockTime = 4 s

Iteration: 92

creating matrix for the layer 2
GAMG:  Solving for Dx, Initial residual = 0.101844, Final residual = 0.00767952, No Iterations 1
GAMG:  Solving for Dy, Initial residual = 0.0897713, Final residual = 0.00941836, No Iterations 1
GAMG:  Solving for Dz, Initial residual = 0.0228865, Final residual = 0.00164315, No Iterations 1
ExecutionTime = 1.48 s  ClockTime = 4 s

Iteration: 93

creating matrix for the layer 2
GAMG:  Solving for Dx, Initial residual = 0.0591386, Final residual = 0.00389995, No Iterations 1
GAMG:  Solving for Dy, Initial residual = 0.0484961, Final residual = 0.00524654, No Iterations 1
GAMG:  Solving for Dz, Initial residual = 0.0127009, Final residual = 0.000929896, No Iterations 1
ExecutionTime = 1.49 s  ClockTime = 4 s

Iteration: 94

creating matrix for the layer 2
GAMG:  Solving for Dx, Initial residual = 0.038509, Final residual = 0.00245941, No Iterations 1
GAMG:  Solving for Dy, Initial residual = 0.0304404, Final residual = 0.00343922, No Iterations 1
GAMG:  Solving for Dz, Initial residual = 0.00920601, Final residual = 0.000700059, No Iterations 1
ExecutionTime = 1.5 s  ClockTime = 4 s

Iteration: 95

creating matrix for the layer 2
GAMG:  Solving for Dx, Initial residual = 0.0264348, Final residual = 0.0017043, No Iterations 1
GAMG:  Solving for Dy, Initial residual = 0.0206866, Final residual = 0.00241029, No Iterations 1
GAMG:  Solving for Dz, Initial residual = 0.00705678, Final residual = 0.00055597, No Iterations 1
ExecutionTime = 1.52 s  ClockTime = 4 s

Iteration: 96

creating matrix for the layer 2
GAMG:  Solving for Dx, Initial residual = 0.0188184, Final residual = 0.00125271, No Iterations 1
GAMG:  Solving for Dy, Initial residual = 0.0145878, Final residual = 0.00174328, No Iterations 1
GAMG:  Solving for Dz, Initial residual = 0.00550782, Final residual = 0.000445077, No Iterations 1
ExecutionTime = 1.53 s  ClockTime = 4 s

Iteration: 97

creating matrix for the layer 2
GAMG:  Solving for Dx, Initial residual = 0.0137851, Final residual = 0.000947694, No Iterations 1
GAMG:  Solving for Dy, Initial residual = 0.0106518, Final residual = 0.00129258, No Iterations 1
GAMG:  Solving for Dz, Initial residual = 0.00433913, Final residual = 0.00035804, No Iterations 1
ExecutionTime = 1.53 s  ClockTime = 4 s

Iteration: 98

creating matrix for the layer 2
GAMG:  Solving for Dx, Initial residual = 0.010348, Final residual = 0.000734537, No Iterations 1
GAMG:  Solving for Dy, Initial residual = 0.00790301, Final residual = 0.000968588, No Iterations 1
GAMG:  Solving for Dz, Initial residual = 0.00345005, Final residual = 0.000289316, No Iterations 1
ExecutionTime = 1.54 s  ClockTime = 4 s

Iteration: 99

creating matrix for the layer 2
GAMG:  Solving for Dx, Initial residual = 0.00792513, Final residual = 0.000578509, No Iterations 1
GAMG:  Solving for Dy, Initial residual = 0.00597628, Final residual = 0.000733512, No Iterations 1
GAMG:  Solving for Dz, Initial residual = 0.00276432, Final residual = 0.00023502, No Iterations 1
ExecutionTime = 1.55 s  ClockTime = 4 s

Iteration: 100

creating matrix for the layer 2
GAMG:  Solving for Dx, Initial residual = 0.00617543, Final residual = 0.000462385, No Iterations 1
GAMG:  Solving for Dy, Initial residual = 0.00457593, Final residual = 0.000558857, No Iterations 1
GAMG:  Solving for Dz, Initial residual = 0.002234, Final residual = 0.00019196, No Iterations 1
ExecutionTime = 1.56 s  ClockTime = 4 s

Iteration: 101

creating matrix for the layer 2
GAMG:  Solving for Dx, Initial residual = 0.00488068, Final residual = 0.000373623, No Iterations 1
GAMG:  Solving for Dy, Initial residual = 0.00355375, Final residual = 0.000430223, No Iterations 1
GAMG:  Solving for Dz, Initial residual = 0.00181906, Final residual = 0.000157595, No Iterations 1
ExecutionTime = 1.57 s  ClockTime = 4 s

Iteration: 102

creating matrix for the layer 2
GAMG:  Solving for Dx, Initial residual = 0.00390679, Final residual = 0.000305911, No Iterations 1
GAMG:  Solving for Dy, Initial residual = 0.00279395, Final residual = 0.000335614, No Iterations 1
GAMG:  Solving for Dz, Initial residual = 0.0014924, Final residual = 0.000130014, No Iterations 1
ExecutionTime = 1.58 s  ClockTime = 4 s

Iteration: 103

creating matrix for the layer 2
GAMG:  Solving for Dx, Initial residual = 0.00317449, Final residual = 0.000253719, No Iterations 1
GAMG:  Solving for Dy, Initial residual = 0.00222911, Final residual = 0.000266503, No Iterations 1
GAMG:  Solving for Dz, Initial residual = 0.00123258, Final residual = 0.000107776, No Iterations 1
ExecutionTime = 1.59 s  ClockTime = 4 s

Iteration: 104

creating matrix for the layer 2
GAMG:  Solving for Dx, Initial residual = 0.00261128, Final residual = 0.000213001, No Iterations 1
GAMG:  Solving for Dy, Initial residual = 0.00180525, Final residual = 0.000214708, No Iterations 1
GAMG:  Solving for Dz, Initial residual = 0.00102445, Final residual = 8.9745e-05, No Iterations 1
ExecutionTime = 1.6 s  ClockTime = 4 s

Iteration: 105

creating matrix for the layer 2
GAMG:  Solving for Dx, Initial residual = 0.00216945, Final residual = 0.00018098, No Iterations 1
GAMG:  Solving for Dy, Initial residual = 0.00148223, Final residual = 0.00017552, No Iterations 1
GAMG:  Solving for Dz, Initial residual = 0.000856232, Final residual = 7.50499e-05, No Iterations 1
ExecutionTime = 1.61 s  ClockTime = 4 s

Iteration: 106

creating matrix for the layer 2
GAMG:  Solving for Dx, Initial residual = 0.0018201, Final residual = 0.000155465, No Iterations 1
GAMG:  Solving for Dy, Initial residual = 0.00123211, Final residual = 0.000145785, No Iterations 1
GAMG:  Solving for Dz, Initial residual = 0.00071941, Final residual = 6.30119e-05, No Iterations 1
ExecutionTime = 1.62 s  ClockTime = 4 s

Iteration: 107

creating matrix for the layer 2
GAMG:  Solving for Dx, Initial residual = 0.00154123, Final residual = 0.000134672, No Iterations 1
GAMG:  Solving for Dy, Initial residual = 0.0010338, Final residual = 0.000123116, No Iterations 1
GAMG:  Solving for Dz, Initial residual = 0.00060744, Final residual = 5.31005e-05, No Iterations 1
ExecutionTime = 1.63 s  ClockTime = 4 s

Iteration: 108

creating matrix for the layer 2
GAMG:  Solving for Dx, Initial residual = 0.00131763, Final residual = 0.00011761, No Iterations 1
GAMG:  Solving for Dy, Initial residual = 0.000875605, Final residual = 0.000105129, No Iterations 1
GAMG:  Solving for Dz, Initial residual = 0.000515279, Final residual = 4.49061e-05, No Iterations 1
ExecutionTime = 1.64 s  ClockTime = 4 s

Iteration: 109

creating matrix for the layer 2
GAMG:  Solving for Dx, Initial residual = 0.00113608, Final residual = 0.000103694, No Iterations 1
GAMG:  Solving for Dy, Initial residual = 0.000748482, Final residual = 9.06057e-05, No Iterations 1
GAMG:  Solving for Dz, Initial residual = 0.000438862, Final residual = 3.8104e-05, No Iterations 1
ExecutionTime = 1.65 s  ClockTime = 4 s

Iteration: 110

creating matrix for the layer 2
GAMG:  Solving for Dx, Initial residual = 0.000985535, Final residual = 9.20203e-05, No Iterations 1
GAMG:  Solving for Dy, Initial residual = 0.000644941, Final residual = 7.86916e-05, No Iterations 1
GAMG:  Solving for Dz, Initial residual = 0.000375011, Final residual = 3.24344e-05, No Iterations 1
ExecutionTime = 1.66 s  ClockTime = 4 s

Iteration: 111

creating matrix for the layer 2
GAMG:  Solving for Dx, Initial residual = 0.000859749, Final residual = 8.20383e-05, No Iterations 1
GAMG:  Solving for Dy, Initial residual = 0.000560158, Final residual = 6.87443e-05, No Iterations 1
GAMG:  Solving for Dz, Initial residual = 0.00032141, Final residual = 2.76798e-05, No Iterations 1
ExecutionTime = 1.67 s  ClockTime = 4 s

Iteration: 112

creating matrix for the layer 2
GAMG:  Solving for Dx, Initial residual = 0.000753698, Final residual = 7.34548e-05, No Iterations 1
GAMG:  Solving for Dy, Initial residual = 0.000488799, Final residual = 6.02948e-05, No Iterations 1
GAMG:  Solving for Dz, Initial residual = 0.000276232, Final residual = 2.36708e-05, No Iterations 1
ExecutionTime = 1.67 s  ClockTime = 4 s

Iteration: 113

creating matrix for the layer 2
GAMG:  Solving for Dx, Initial residual = 0.000663661, Final residual = 6.60322e-05, No Iterations 1
GAMG:  Solving for Dy, Initial residual = 0.000426996, Final residual = 5.2949e-05, No Iterations 1
GAMG:  Solving for Dz, Initial residual = 0.000237947, Final residual = 2.02782e-05, No Iterations 1
ExecutionTime = 1.68 s  ClockTime = 4 s

Iteration: 114

creating matrix for the layer 2
GAMG:  Solving for Dx, Initial residual = 0.000586654, Final residual = 5.95217e-05, No Iterations 1
GAMG:  Solving for Dy, Initial residual = 0.000372942, Final residual = 4.64152e-05, No Iterations 1
GAMG:  Solving for Dz, Initial residual = 0.000205306, Final residual = 1.7401e-05, No Iterations 1
ExecutionTime = 1.69 s  ClockTime = 4 s

Iteration: 115

creating matrix for the layer 2
GAMG:  Solving for Dx, Initial residual = 0.000520443, Final residual = 5.37496e-05, No Iterations 1
GAMG:  Solving for Dy, Initial residual = 0.000325493, Final residual = 4.06171e-05, No Iterations 1
GAMG:  Solving for Dz, Initial residual = 0.000177384, Final residual = 1.49525e-05, No Iterations 1
ExecutionTime = 1.7 s  ClockTime = 4 s

Iteration: 116

creating matrix for the layer 2
GAMG:  Solving for Dx, Initial residual = 0.000463165, Final residual = 4.86145e-05, No Iterations 1
GAMG:  Solving for Dy, Initial residual = 0.000283938, Final residual = 3.54964e-05, No Iterations 1
GAMG:  Solving for Dz, Initial residual = 0.000153443, Final residual = 1.28645e-05, No Iterations 1
ExecutionTime = 1.71 s  ClockTime = 4 s

Iteration: 117

creating matrix for the layer 2
GAMG:  Solving for Dx, Initial residual = 0.000413193, Final residual = 4.39994e-05, No Iterations 1
GAMG:  Solving for Dy, Initial residual = 0.000247517, Final residual = 3.09858e-05, No Iterations 1
GAMG:  Solving for Dz, Initial residual = 0.000132867, Final residual = 1.10805e-05, No Iterations 1
ExecutionTime = 1.72 s  ClockTime = 4 s

Iteration: 118

creating matrix for the layer 2
GAMG:  Solving for Dx, Initial residual = 0.000369527, Final residual = 3.98429e-05, No Iterations 1
GAMG:  Solving for Dy, Initial residual = 0.000215644, Final residual = 2.7025e-05, No Iterations 1
GAMG:  Solving for Dz, Initial residual = 0.000115161, Final residual = 9.55393e-06, No Iterations 1
ExecutionTime = 1.73 s  ClockTime = 4 s

Iteration: 119

creating matrix for the layer 2
GAMG:  Solving for Dx, Initial residual = 0.000331252, Final residual = 3.60947e-05, No Iterations 1
GAMG:  Solving for Dy, Initial residual = 0.000187828, Final residual = 2.35552e-05, No Iterations 1
GAMG:  Solving for Dz, Initial residual = 9.9896e-05, Final residual = 8.2461e-06, No Iterations 1
ExecutionTime = 1.74 s  ClockTime = 4 s

Iteration: 120

creating matrix for the layer 2
GAMG:  Solving for Dx, Initial residual = 0.00029748, Final residual = 3.27058e-05, No Iterations 1
GAMG:  Solving for Dy, Initial residual = 0.000163563, Final residual = 2.05215e-05, No Iterations 1
GAMG:  Solving for Dz, Initial residual = 8.67225e-05, Final residual = 7.12377e-06, No Iterations 1
ExecutionTime = 1.75 s  ClockTime = 4 s

Iteration: 121

creating matrix for the layer 2
GAMG:  Solving for Dx, Initial residual = 0.000267522, Final residual = 2.96464e-05, No Iterations 1
GAMG:  Solving for Dy, Initial residual = 0.000142417, Final residual = 1.78721e-05, No Iterations 1
GAMG:  Solving for Dz, Initial residual = 7.53436e-05, Final residual = 6.15934e-06, No Iterations 1
ExecutionTime = 1.75 s  ClockTime = 4 s

Iteration: 122

creating matrix for the layer 2
GAMG:  Solving for Dx, Initial residual = 0.000240876, Final residual = 2.68728e-05, No Iterations 1
GAMG:  Solving for Dy, Initial residual = 0.000124003, Final residual = 1.55605e-05, No Iterations 1
GAMG:  Solving for Dz, Initial residual = 6.55039e-05, Final residual = 5.32958e-06, No Iterations 1
ExecutionTime = 1.76 s  ClockTime = 4 s

Iteration: 123

creating matrix for the layer 2
GAMG:  Solving for Dx, Initial residual = 0.000217074, Final residual = 2.43609e-05, No Iterations 1
GAMG:  Solving for Dy, Initial residual = 0.000107971, Final residual = 1.35453e-05, No Iterations 1
GAMG:  Solving for Dz, Initial residual = 5.6983e-05, Final residual = 4.61496e-06, No Iterations 1
ExecutionTime = 1.78 s  ClockTime = 4 s

Iteration: 124

creating matrix for the layer 2
GAMG:  Solving for Dx, Initial residual = 0.00019575, Final residual = 2.20811e-05, No Iterations 1
GAMG:  Solving for Dy, Initial residual = 9.40135e-05, Final residual = 1.17901e-05, No Iterations 1
GAMG:  Solving for Dz, Initial residual = 4.96001e-05, Final residual = 3.99898e-06, No Iterations 1
ExecutionTime = 1.79 s  ClockTime = 4 s

Iteration: 125

creating matrix for the layer 2
GAMG:  Solving for Dx, Initial residual = 0.00017664, Final residual = 2.00119e-05, No Iterations 1
GAMG:  Solving for Dy, Initial residual = 8.18651e-05, Final residual = 1.02626e-05, No Iterations 1
GAMG:  Solving for Dz, Initial residual = 4.31985e-05, Final residual = 3.46757e-06, No Iterations 1
ExecutionTime = 1.8 s  ClockTime = 4 s

Iteration: 126

creating matrix for the layer 2
GAMG:  Solving for Dx, Initial residual = 0.000159468, Final residual = 1.81347e-05, No Iterations 1
GAMG:  Solving for Dy, Initial residual = 7.12951e-05, Final residual = 8.93382e-06, No Iterations 1
GAMG:  Solving for Dz, Initial residual = 3.76421e-05, Final residual = 3.00888e-06, No Iterations 1
ExecutionTime = 1.81 s  ClockTime = 4 s

Iteration: 127

creating matrix for the layer 2
GAMG:  Solving for Dx, Initial residual = 0.000144022, Final residual = 1.64316e-05, No Iterations 1
GAMG:  Solving for Dy, Initial residual = 6.21005e-05, Final residual = 7.77786e-06, No Iterations 1
GAMG:  Solving for Dz, Initial residual = 3.28168e-05, Final residual = 2.61279e-06, No Iterations 1
ExecutionTime = 1.82 s  ClockTime = 4 s

Iteration: 128

creating matrix for the layer 2
GAMG:  Solving for Dx, Initial residual = 0.000130121, Final residual = 1.48864e-05, No Iterations 1
GAMG:  Solving for Dy, Initial residual = 5.4104e-05, Final residual = 6.77243e-06, No Iterations 1
GAMG:  Solving for Dz, Initial residual = 2.86237e-05, Final residual = 2.2705e-06, No Iterations 1
ExecutionTime = 1.83 s  ClockTime = 4 s

Iteration: 129

creating matrix for the layer 2
GAMG:  Solving for Dx, Initial residual = 0.000117602, Final residual = 1.34849e-05, No Iterations 1
GAMG:  Solving for Dy, Initial residual = 4.71477e-05, Final residual = 5.89819e-06, No Iterations 1
GAMG:  Solving for Dz, Initial residual = 2.49804e-05, Final residual = 1.97443e-06, No Iterations 1
ExecutionTime = 1.83 s  ClockTime = 4 s

Iteration: 130

creating matrix for the layer 2
GAMG:  Solving for Dx, Initial residual = 0.000106373, Final residual = 1.2214e-05, No Iterations 1
GAMG:  Solving for Dy, Initial residual = 4.11001e-05, Final residual = 5.1381e-06, No Iterations 1
GAMG:  Solving for Dz, Initial residual = 2.18116e-05, Final residual = 1.71825e-06, No Iterations 1
ExecutionTime = 1.84 s  ClockTime = 4 s

Iteration: 131

creating matrix for the layer 2
GAMG:  Solving for Dx, Initial residual = 9.62635e-05, Final residual = 1.10623e-05, No Iterations 1
GAMG:  Solving for Dy, Initial residual = 3.58425e-05, Final residual = 4.47709e-06, No Iterations 1
GAMG:  Solving for Dz, Initial residual = 1.90544e-05, Final residual = 1.49629e-06, No Iterations 1
ExecutionTime = 1.85 s  ClockTime = 4 s

Iteration: 132

creating matrix for the layer 2
GAMG:  Solving for Dx, Initial residual = 8.71412e-05, Final residual = 1.00186e-05, No Iterations 1
GAMG:  Solving for Dy, Initial residual = 3.12692e-05, Final residual = 3.90232e-06, No Iterations 1
GAMG:  Solving for Dz, Initial residual = 1.66538e-05, Final residual = 1.30394e-06, No Iterations 1
ExecutionTime = 1.86 s  ClockTime = 4 s

Iteration: 133

creating matrix for the layer 2
GAMG:  Solving for Dx, Initial residual = 7.88957e-05, Final residual = 9.07388e-06, No Iterations 1
GAMG:  Solving for Dy, Initial residual = 2.72906e-05, Final residual = 3.40246e-06, No Iterations 1
GAMG:  Solving for Dz, Initial residual = 1.45622e-05, Final residual = 1.13706e-06, No Iterations 1
ExecutionTime = 1.87 s  ClockTime = 4 s

Iteration: 134

creating matrix for the layer 2
GAMG:  Solving for Dx, Initial residual = 7.14414e-05, Final residual = 8.21804e-06, No Iterations 1
GAMG:  Solving for Dy, Initial residual = 2.38313e-05, Final residual = 2.96746e-06, No Iterations 1
GAMG:  Solving for Dz, Initial residual = 1.2739e-05, Final residual = 9.92234e-07, No Iterations 1
ExecutionTime = 1.87 s  ClockTime = 4 s

Iteration: 135

creating matrix for the layer 2
GAMG:  Solving for Dx, Initial residual = 6.46993e-05, Final residual = 7.44312e-06, No Iterations 1
GAMG:  Solving for Dy, Initial residual = 2.08268e-05, Final residual = 2.58884e-06, No Iterations 1
GAMG:  Solving for Dz, Initial residual = 1.1149e-05, Final residual = 8.66432e-07, No Iterations 1
ExecutionTime = 1.88 s  ClockTime = 4 s

Iteration: 136

creating matrix for the layer 2
GAMG:  Solving for Dx, Initial residual = 5.86267e-05, Final residual = 6.74177e-06, No Iterations 1
GAMG:  Solving for Dy, Initial residual = 1.82092e-05, Final residual = 2.25927e-06, No Iterations 1
GAMG:  Solving for Dz, Initial residual = 9.7623e-06, Final residual = 7.57075e-07, No Iterations 1
ExecutionTime = 1.9 s  ClockTime = 4 s

Iteration: 137

creating matrix for the layer 2
GAMG:  Solving for Dx, Initial residual = 5.31358e-05, Final residual = 6.10873e-06, No Iterations 1
GAMG:  Solving for Dy, Initial residual = 1.59275e-05, Final residual = 1.97241e-06, No Iterations 1
GAMG:  Solving for Dz, Initial residual = 8.5526e-06, Final residual = 6.61977e-07, No Iterations 1
ExecutionTime = 1.91 s  ClockTime = 4 s

Iteration: 138

creating matrix for the layer 2
GAMG:  Solving for Dx, Initial residual = 4.81647e-05, Final residual = 5.53525e-06, No Iterations 1
GAMG:  Solving for Dy, Initial residual = 1.39447e-05, Final residual = 1.7227e-06, No Iterations 1
GAMG:  Solving for Dz, Initial residual = 7.49624e-06, Final residual = 5.79223e-07, No Iterations 1
ExecutionTime = 1.92 s  ClockTime = 4 s

Iteration: 139

creating matrix for the layer 2
GAMG:  Solving for Dx, Initial residual = 4.36632e-05, Final residual = 5.0158e-06, No Iterations 1
GAMG:  Solving for Dy, Initial residual = 1.22199e-05, Final residual = 1.50531e-06, No Iterations 1
GAMG:  Solving for Dz, Initial residual = 6.57338e-06, Final residual = 5.07158e-07, No Iterations 1
ExecutionTime = 1.92 s  ClockTime = 4 s

Iteration: 140

creating matrix for the layer 2
GAMG:  Solving for Dx, Initial residual = 3.95863e-05, Final residual = 4.54516e-06, No Iterations 1
GAMG:  Solving for Dy, Initial residual = 1.07141e-05, Final residual = 1.31597e-06, No Iterations 1
GAMG:  Solving for Dz, Initial residual = 5.76682e-06, Final residual = 4.44361e-07, No Iterations 1
ExecutionTime = 1.93 s  ClockTime = 4 s

Iteration: 141

creating matrix for the layer 2
GAMG:  Solving for Dx, Initial residual = 3.58941e-05, Final residual = 4.11921e-06, No Iterations 1
GAMG:  Solving for Dy, Initial residual = 9.39889e-06, Final residual = 1.15097e-06, No Iterations 1
GAMG:  Solving for Dz, Initial residual = 5.06161e-06, Final residual = 3.89605e-07, No Iterations 1
ExecutionTime = 1.94 s  ClockTime = 4 s

Iteration: 142

creating matrix for the layer 2
GAMG:  Solving for Dx, Initial residual = 3.25499e-05, Final residual = 3.73351e-06, No Iterations 1
GAMG:  Solving for Dy, Initial residual = 8.24993e-06, Final residual = 1.00711e-06, No Iterations 1
GAMG:  Solving for Dz, Initial residual = 4.44522e-06, Final residual = 3.41833e-07, No Iterations 1
ExecutionTime = 1.96 s  ClockTime = 5 s

Iteration: 143

creating matrix for the layer 2
GAMG:  Solving for Dx, Initial residual = 2.95203e-05, Final residual = 3.38408e-06, No Iterations 1
GAMG:  Solving for Dy, Initial residual = 7.24731e-06, Final residual = 8.81748e-07, No Iterations 1
GAMG:  Solving for Dz, Initial residual = 3.90648e-06, Final residual = 3.00126e-07, No Iterations 1
ExecutionTime = 1.97 s  ClockTime = 5 s

Iteration: 144

creating matrix for the layer 2
GAMG:  Solving for Dx, Initial residual = 2.67754e-05, Final residual = 3.06754e-06, No Iterations 1
GAMG:  Solving for Dy, Initial residual = 6.37043e-06, Final residual = 7.72403e-07, No Iterations 1
GAMG:  Solving for Dz, Initial residual = 3.43475e-06, Final residual = 2.63704e-07, No Iterations 1
ExecutionTime = 1.98 s  ClockTime = 5 s

Iteration: 145

creating matrix for the layer 2
GAMG:  Solving for Dx, Initial residual = 2.42882e-05, Final residual = 2.78079e-06, No Iterations 1
GAMG:  Solving for Dy, Initial residual = 5.60328e-06, Final residual = 6.77013e-07, No Iterations 1
GAMG:  Solving for Dz, Initial residual = 3.02169e-06, Final residual = 2.31871e-07, No Iterations 1
ExecutionTime = 1.99 s  ClockTime = 5 s

Iteration: 146

creating matrix for the layer 2
GAMG:  Solving for Dx, Initial residual = 2.20345e-05, Final residual = 2.52135e-06, No Iterations 1
GAMG:  Solving for Dy, Initial residual = 4.93159e-06, Final residual = 5.93748e-07, No Iterations 1
GAMG:  Solving for Dz, Initial residual = 2.66072e-06, Final residual = 2.04032e-07, No Iterations 1
ExecutionTime = 2 s  ClockTime = 5 s

Iteration: 147

creating matrix for the layer 2
GAMG:  Solving for Dx, Initial residual = 1.99946e-05, Final residual = 2.28758e-06, No Iterations 1
GAMG:  Solving for Dy, Initial residual = 4.34389e-06, Final residual = 5.21068e-07, No Iterations 1
GAMG:  Solving for Dz, Initial residual = 2.34417e-06, Final residual = 1.79686e-07, No Iterations 1
ExecutionTime = 2 s  ClockTime = 5 s

Iteration: 148

creating matrix for the layer 2
GAMG:  Solving for Dx, Initial residual = 1.81467e-05, Final residual = 2.07567e-06, No Iterations 1
GAMG:  Solving for Dy, Initial residual = 3.82923e-06, Final residual = 4.58009e-07, No Iterations 1
GAMG:  Solving for Dz, Initial residual = 2.06642e-06, Final residual = 1.58373e-07, No Iterations 1
ExecutionTime = 2.01 s  ClockTime = 5 s

Iteration: 149

creating matrix for the layer 2
GAMG:  Solving for Dx, Initial residual = 1.64716e-05, Final residual = 1.88357e-06, No Iterations 1
GAMG:  Solving for Dy, Initial residual = 3.37828e-06, Final residual = 4.03113e-07, No Iterations 1
GAMG:  Solving for Dz, Initial residual = 1.82259e-06, Final residual = 1.397e-07, No Iterations 1
ExecutionTime = 2.02 s  ClockTime = 5 s

Iteration: 150

creating matrix for the layer 2
GAMG:  Solving for Dx, Initial residual = 1.49533e-05, Final residual = 1.70944e-06, No Iterations 1
GAMG:  Solving for Dy, Initial residual = 2.98297e-06, Final residual = 3.55112e-07, No Iterations 1
GAMG:  Solving for Dz, Initial residual = 1.60846e-06, Final residual = 1.23328e-07, No Iterations 1
ExecutionTime = 2.03 s  ClockTime = 5 s

Iteration: 151

creating matrix for the layer 2
GAMG:  Solving for Dx, Initial residual = 1.35768e-05, Final residual = 1.55159e-06, No Iterations 1
GAMG:  Solving for Dy, Initial residual = 2.63588e-06, Final residual = 3.13122e-07, No Iterations 1
GAMG:  Solving for Dz, Initial residual = 1.42031e-06, Final residual = 1.08962e-07, No Iterations 1
ExecutionTime = 2.04 s  ClockTime = 5 s

Iteration: 152

creating matrix for the layer 2
GAMG:  Solving for Dx, Initial residual = 1.23284e-05, Final residual = 1.40849e-06, No Iterations 1
GAMG:  Solving for Dy, Initial residual = 2.33115e-06, Final residual = 2.76339e-07, No Iterations 1
GAMG:  Solving for Dz, Initial residual = 1.25502e-06, Final residual = 9.6349e-08, No Iterations 1
ExecutionTime = 2.06 s  ClockTime = 5 s

Iteration: 153

creating matrix for the layer 2
GAMG:  Solving for Dx, Initial residual = 1.11962e-05, Final residual = 1.27881e-06, No Iterations 1
GAMG:  Solving for Dy, Initial residual = 2.06329e-06, Final residual = 2.44175e-07, No Iterations 1
GAMG:  Solving for Dz, Initial residual = 1.10977e-06, Final residual = 8.52705e-08, No Iterations 1
ExecutionTime = 2.07 s  ClockTime = 5 s

Iteration: 154

creating matrix for the layer 2
GAMG:  Solving for Dx, Initial residual = 1.01693e-05, Final residual = 1.16129e-06, No Iterations 1
GAMG:  Solving for Dy, Initial residual = 1.82769e-06, Final residual = 2.1602e-07, No Iterations 1
GAMG:  Solving for Dz, Initial residual = 9.82114e-07, Final residual = 9.82114e-07, No Iterations 0
ExecutionTime = 2.08 s  ClockTime = 5 s

Iteration: 155

creating matrix for the layer 2
GAMG:  Solving for Dx, Initial residual = 9.14535e-06, Final residual = 1.03531e-06, No Iterations 1
GAMG:  Solving for Dy, Initial residual = 1.36025e-06, Final residual = 1.72091e-07, No Iterations 1
GAMG:  Solving for Dz, Initial residual = 1.5741e-06, Final residual = 1.12536e-07, No Iterations 1
ExecutionTime = 2.09 s  ClockTime = 5 s


SIMPLE solution converged in 155 iterations


LAYER NUMBER: 3
Calculating polymerization field

Calculating Young's modulus

Calculating Lame's coefficients

Calculating explicit part of div(sigma) divSigmaExp


SIMPLE: convergence criteria
    field D	 tolerance 1e-05


Calculating displacement field

Iteration: 156

creating matrix for the layer 3
GAMG:  Solving for Dx, Initial residual = 0.16654, Final residual = 0.0119637, No Iterations 1
GAMG:  Solving for Dy, Initial residual = 0.225851, Final residual = 0.0242819, No Iterations 1
GAMG:  Solving for Dz, Initial residual = 0.199705, Final residual = 0.0168886, No Iterations 1
ExecutionTime = 2.73 s  ClockTime = 7 s

Iteration: 157

creating matrix for the layer 3
GAMG:  Solving for Dx, Initial residual = 0.172089, Final residual = 0.0161063, No Iterations 1
GAMG:  Solving for Dy, Initial residual = 0.225358, Final residual = 0.0135618, No Iterations 1
GAMG:  Solving for Dz, Initial residual = 0.0720963, Final residual = 0.00532522, No Iterations 1
ExecutionTime = 2.74 s  ClockTime = 7 s

Iteration: 158

creating matrix for the layer 3
GAMG:  Solving for Dx, Initial residual = 0.0823871, Final residual = 0.00912822, No Iterations 1
GAMG:  Solving for Dy, Initial residual = 0.111603, Final residual = 0.00742377, No Iterations 1
GAMG:  Solving for Dz, Initial residual = 0.0137081, Final residual = 0.000945179, No Iterations 1
ExecutionTime = 2.75 s  ClockTime = 7 s

Iteration: 159

creating matrix for the layer 3
GAMG:  Solving for Dx, Initial residual = 0.0519811, Final residual = 0.00583482, No Iterations 1
GAMG:  Solving for Dy, Initial residual = 0.0764769, Final residual = 0.0059489, No Iterations 1
GAMG:  Solving for Dz, Initial residual = 0.00699022, Final residual = 0.000554718, No Iterations 1
ExecutionTime = 2.76 s  ClockTime = 7 s

Iteration: 160

creating matrix for the layer 3
GAMG:  Solving for Dx, Initial residual = 0.034792, Final residual = 0.0038333, No Iterations 1
GAMG:  Solving for Dy, Initial residual = 0.0527607, Final residual = 0.00424589, No Iterations 1
GAMG:  Solving for Dz, Initial residual = 0.00459315, Final residual = 0.000382549, No Iterations 1
ExecutionTime = 2.77 s  ClockTime = 7 s

Iteration: 161

creating matrix for the layer 3
GAMG:  Solving for Dx, Initial residual = 0.0247056, Final residual = 0.00269316, No Iterations 1
GAMG:  Solving for Dy, Initial residual = 0.0361998, Final residual = 0.00296147, No Iterations 1
GAMG:  Solving for Dz, Initial residual = 0.00333401, Final residual = 0.000265739, No Iterations 1
ExecutionTime = 2.78 s  ClockTime = 7 s

Iteration: 162

creating matrix for the layer 3
GAMG:  Solving for Dx, Initial residual = 0.0183755, Final residual = 0.00199795, No Iterations 1
GAMG:  Solving for Dy, Initial residual = 0.0254175, Final residual = 0.00206823, No Iterations 1
GAMG:  Solving for Dz, Initial residual = 0.00248314, Final residual = 0.000193493, No Iterations 1
ExecutionTime = 2.79 s  ClockTime = 7 s

Iteration: 163

creating matrix for the layer 3
GAMG:  Solving for Dx, Initial residual = 0.0141781, Final residual = 0.00155222, No Iterations 1
GAMG:  Solving for Dy, Initial residual = 0.0183083, Final residual = 0.00145856, No Iterations 1
GAMG:  Solving for Dz, Initial residual = 0.00189617, Final residual = 0.000141438, No Iterations 1
ExecutionTime = 2.81 s  ClockTime = 7 s

Iteration: 164

creating matrix for the layer 3
GAMG:  Solving for Dx, Initial residual = 0.0112565, Final residual = 0.00124129, No Iterations 1
GAMG:  Solving for Dy, Initial residual = 0.0135617, Final residual = 0.00105722, No Iterations 1
GAMG:  Solving for Dz, Initial residual = 0.00146908, Final residual = 0.000106254, No Iterations 1
ExecutionTime = 2.82 s  ClockTime = 7 s

Iteration: 165

creating matrix for the layer 3
GAMG:  Solving for Dx, Initial residual = 0.00911986, Final residual = 0.00101555, No Iterations 1
GAMG:  Solving for Dy, Initial residual = 0.0102635, Final residual = 0.000785037, No Iterations 1
GAMG:  Solving for Dz, Initial residual = 0.00115513, Final residual = 8.05371e-05, No Iterations 1
ExecutionTime = 2.83 s  ClockTime = 7 s

Iteration: 166

creating matrix for the layer 3
GAMG:  Solving for Dx, Initial residual = 0.00751437, Final residual = 0.000842827, No Iterations 1
GAMG:  Solving for Dy, Initial residual = 0.0079242, Final residual = 0.000601002, No Iterations 1
GAMG:  Solving for Dz, Initial residual = 0.00091535, Final residual = 6.22085e-05, No Iterations 1
ExecutionTime = 2.84 s  ClockTime = 7 s

Iteration: 167

creating matrix for the layer 3
GAMG:  Solving for Dx, Initial residual = 0.00626272, Final residual = 0.000708287, No Iterations 1
GAMG:  Solving for Dy, Initial residual = 0.00620914, Final residual = 0.000470664, No Iterations 1
GAMG:  Solving for Dz, Initial residual = 0.000733123, Final residual = 4.85736e-05, No Iterations 1
ExecutionTime = 2.85 s  ClockTime = 7 s

Iteration: 168

creating matrix for the layer 3
GAMG:  Solving for Dx, Initial residual = 0.00527534, Final residual = 0.000600488, No Iterations 1
GAMG:  Solving for Dy, Initial residual = 0.00492864, Final residual = 0.00037799, No Iterations 1
GAMG:  Solving for Dz, Initial residual = 0.000592328, Final residual = 3.85835e-05, No Iterations 1
ExecutionTime = 2.85 s  ClockTime = 7 s

Iteration: 169

creating matrix for the layer 3
GAMG:  Solving for Dx, Initial residual = 0.00448237, Final residual = 0.000513201, No Iterations 1
GAMG:  Solving for Dy, Initial residual = 0.00395137, Final residual = 0.00030836, No Iterations 1
GAMG:  Solving for Dz, Initial residual = 0.00048329, Final residual = 3.10244e-05, No Iterations 1
ExecutionTime = 2.86 s  ClockTime = 7 s

Iteration: 170

creating matrix for the layer 3
GAMG:  Solving for Dx, Initial residual = 0.00383634, Final residual = 0.000441291, No Iterations 1
GAMG:  Solving for Dy, Initial residual = 0.00320106, Final residual = 0.000255175, No Iterations 1
GAMG:  Solving for Dz, Initial residual = 0.000398463, Final residual = 2.52349e-05, No Iterations 1
ExecutionTime = 2.88 s  ClockTime = 7 s

Iteration: 171

creating matrix for the layer 3
GAMG:  Solving for Dx, Initial residual = 0.00330325, Final residual = 0.000381653, No Iterations 1
GAMG:  Solving for Dy, Initial residual = 0.00261266, Final residual = 0.000213215, No Iterations 1
GAMG:  Solving for Dz, Initial residual = 0.000331669, Final residual = 2.0725e-05, No Iterations 1
ExecutionTime = 2.89 s  ClockTime = 7 s

Iteration: 172

creating matrix for the layer 3
GAMG:  Solving for Dx, Initial residual = 0.00285929, Final residual = 0.000331643, No Iterations 1
GAMG:  Solving for Dy, Initial residual = 0.00214526, Final residual = 0.000179766, No Iterations 1
GAMG:  Solving for Dz, Initial residual = 0.000278427, Final residual = 1.72079e-05, No Iterations 1
ExecutionTime = 2.9 s  ClockTime = 7 s

Iteration: 173

creating matrix for the layer 3
GAMG:  Solving for Dx, Initial residual = 0.00248631, Final residual = 0.000289551, No Iterations 1
GAMG:  Solving for Dy, Initial residual = 0.00177387, Final residual = 0.000152608, No Iterations 1
GAMG:  Solving for Dz, Initial residual = 0.000235455, Final residual = 1.4461e-05, No Iterations 1
ExecutionTime = 2.9 s  ClockTime = 7 s

Iteration: 174

creating matrix for the layer 3
GAMG:  Solving for Dx, Initial residual = 0.00217134, Final residual = 0.000253799, No Iterations 1
GAMG:  Solving for Dy, Initial residual = 0.00147574, Final residual = 0.0001304, No Iterations 1
GAMG:  Solving for Dz, Initial residual = 0.000200295, Final residual = 1.22864e-05, No Iterations 1
ExecutionTime = 2.91 s  ClockTime = 7 s

Iteration: 175

creating matrix for the layer 3
GAMG:  Solving for Dx, Initial residual = 0.00190348, Final residual = 0.000223202, No Iterations 1
GAMG:  Solving for Dy, Initial residual = 0.00123489, Final residual = 0.000112012, No Iterations 1
GAMG:  Solving for Dz, Initial residual = 0.000171363, Final residual = 1.05217e-05, No Iterations 1
ExecutionTime = 2.92 s  ClockTime = 7 s

Iteration: 176

creating matrix for the layer 3
GAMG:  Solving for Dx, Initial residual = 0.00167411, Final residual = 0.000196874, No Iterations 1
GAMG:  Solving for Dy, Initial residual = 0.00103854, Final residual = 9.66566e-05, No Iterations 1
GAMG:  Solving for Dz, Initial residual = 0.000147256, Final residual = 9.07043e-06, No Iterations 1
ExecutionTime = 2.93 s  ClockTime = 7 s

Iteration: 177

creating matrix for the layer 3
GAMG:  Solving for Dx, Initial residual = 0.00147658, Final residual = 0.000174135, No Iterations 1
GAMG:  Solving for Dy, Initial residual = 0.000876621, Final residual = 8.37235e-05, No Iterations 1
GAMG:  Solving for Dz, Initial residual = 0.000127114, Final residual = 7.86108e-06, No Iterations 1
ExecutionTime = 2.94 s  ClockTime = 7 s

Iteration: 178

creating matrix for the layer 3
GAMG:  Solving for Dx, Initial residual = 0.00130576, Final residual = 0.000154403, No Iterations 1
GAMG:  Solving for Dy, Initial residual = 0.000743167, Final residual = 7.27643e-05, No Iterations 1
GAMG:  Solving for Dz, Initial residual = 0.000110233, Final residual = 6.84679e-06, No Iterations 1
ExecutionTime = 2.96 s  ClockTime = 7 s

Iteration: 179

creating matrix for the layer 3
GAMG:  Solving for Dx, Initial residual = 0.00115732, Final residual = 0.000137214, No Iterations 1
GAMG:  Solving for Dy, Initial residual = 0.000632476, Final residual = 6.34165e-05, No Iterations 1
GAMG:  Solving for Dz, Initial residual = 9.5978e-05, Final residual = 5.98426e-06, No Iterations 1
ExecutionTime = 2.97 s  ClockTime = 7 s

Iteration: 180

creating matrix for the layer 3
GAMG:  Solving for Dx, Initial residual = 0.00102795, Final residual = 0.000122199, No Iterations 1
GAMG:  Solving for Dy, Initial residual = 0.000540492, Final residual = 5.54025e-05, No Iterations 1
GAMG:  Solving for Dz, Initial residual = 8.3864e-05, Final residual = 5.24397e-06, No Iterations 1
ExecutionTime = 2.98 s  ClockTime = 7 s

Iteration: 181

creating matrix for the layer 3
GAMG:  Solving for Dx, Initial residual = 0.000914801, Final residual = 0.000109022, No Iterations 1
GAMG:  Solving for Dy, Initial residual = 0.000463519, Final residual = 4.84949e-05, No Iterations 1
GAMG:  Solving for Dz, Initial residual = 7.34371e-05, Final residual = 4.60975e-06, No Iterations 1
ExecutionTime = 2.99 s  ClockTime = 7 s

Iteration: 182

creating matrix for the layer 3
GAMG:  Solving for Dx, Initial residual = 0.000815645, Final residual = 9.74232e-05, No Iterations 1
GAMG:  Solving for Dy, Initial residual = 0.000398875, Final residual = 4.25175e-05, No Iterations 1
GAMG:  Solving for Dz, Initial residual = 6.44353e-05, Final residual = 4.06499e-06, No Iterations 1
ExecutionTime = 3 s  ClockTime = 8 s

Iteration: 183

creating matrix for the layer 3
GAMG:  Solving for Dx, Initial residual = 0.000728322, Final residual = 8.71838e-05, No Iterations 1
GAMG:  Solving for Dy, Initial residual = 0.000344443, Final residual = 3.73277e-05, No Iterations 1
GAMG:  Solving for Dz, Initial residual = 5.66239e-05, Final residual = 3.58909e-06, No Iterations 1
ExecutionTime = 3.01 s  ClockTime = 8 s

Iteration: 184

creating matrix for the layer 3
GAMG:  Solving for Dx, Initial residual = 0.000651171, Final residual = 7.81179e-05, No Iterations 1
GAMG:  Solving for Dy, Initial residual = 0.000298503, Final residual = 3.28079e-05, No Iterations 1
GAMG:  Solving for Dz, Initial residual = 4.98322e-05, Final residual = 3.17452e-06, No Iterations 1
ExecutionTime = 3.02 s  ClockTime = 8 s

Iteration: 185

creating matrix for the layer 3
GAMG:  Solving for Dx, Initial residual = 0.000582881, Final residual = 7.0074e-05, No Iterations 1
GAMG:  Solving for Dy, Initial residual = 0.000259512, Final residual = 2.88614e-05, No Iterations 1
GAMG:  Solving for Dz, Initial residual = 4.38998e-05, Final residual = 2.81078e-06, No Iterations 1
ExecutionTime = 3.03 s  ClockTime = 8 s

Iteration: 186

creating matrix for the layer 3
GAMG:  Solving for Dx, Initial residual = 0.000522415, Final residual = 6.29266e-05, No Iterations 1
GAMG:  Solving for Dy, Initial residual = 0.000226234, Final residual = 2.54117e-05, No Iterations 1
GAMG:  Solving for Dz, Initial residual = 3.8736e-05, Final residual = 2.4906e-06, No Iterations 1
ExecutionTime = 3.04 s  ClockTime = 8 s

Iteration: 187

creating matrix for the layer 3
GAMG:  Solving for Dx, Initial residual = 0.000468732, Final residual = 5.65605e-05, No Iterations 1
GAMG:  Solving for Dy, Initial residual = 0.00019779, Final residual = 2.23911e-05, No Iterations 1
GAMG:  Solving for Dz, Initial residual = 3.42324e-05, Final residual = 2.20958e-06, No Iterations 1
ExecutionTime = 3.05 s  ClockTime = 8 s

Iteration: 188

creating matrix for the layer 3
GAMG:  Solving for Dx, Initial residual = 0.000420933, Final residual = 5.08811e-05, No Iterations 1
GAMG:  Solving for Dy, Initial residual = 0.000173419, Final residual = 1.97434e-05, No Iterations 1
GAMG:  Solving for Dz, Initial residual = 3.0288e-05, Final residual = 1.962e-06, No Iterations 1
ExecutionTime = 3.06 s  ClockTime = 8 s

Iteration: 189

creating matrix for the layer 3
GAMG:  Solving for Dx, Initial residual = 0.000378356, Final residual = 4.5809e-05, No Iterations 1
GAMG:  Solving for Dy, Initial residual = 0.000152341, Final residual = 1.74202e-05, No Iterations 1
GAMG:  Solving for Dz, Initial residual = 2.68193e-05, Final residual = 1.74314e-06, No Iterations 1
ExecutionTime = 3.07 s  ClockTime = 8 s

Iteration: 190

creating matrix for the layer 3
GAMG:  Solving for Dx, Initial residual = 0.000340346, Final residual = 4.1275e-05, No Iterations 1
GAMG:  Solving for Dy, Initial residual = 0.000134065, Final residual = 1.53799e-05, No Iterations 1
GAMG:  Solving for Dz, Initial residual = 2.3769e-05, Final residual = 1.54937e-06, No Iterations 1
ExecutionTime = 3.08 s  ClockTime = 8 s

Iteration: 191

creating matrix for the layer 3
GAMG:  Solving for Dx, Initial residual = 0.000306364, Final residual = 3.72166e-05, No Iterations 1
GAMG:  Solving for Dy, Initial residual = 0.000118229, Final residual = 1.35873e-05, No Iterations 1
GAMG:  Solving for Dz, Initial residual = 2.10804e-05, Final residual = 1.37799e-06, No Iterations 1
ExecutionTime = 3.09 s  ClockTime = 8 s

Iteration: 192

creating matrix for the layer 3
GAMG:  Solving for Dx, Initial residual = 0.000275988, Final residual = 3.35856e-05, No Iterations 1
GAMG:  Solving for Dy, Initial residual = 0.00010448, Final residual = 1.20111e-05, No Iterations 1
GAMG:  Solving for Dz, Initial residual = 1.87128e-05, Final residual = 1.226e-06, No Iterations 1
ExecutionTime = 3.1 s  ClockTime = 8 s

Iteration: 193

creating matrix for the layer 3
GAMG:  Solving for Dx, Initial residual = 0.000248788, Final residual = 3.03302e-05, No Iterations 1
GAMG:  Solving for Dy, Initial residual = 9.24713e-05, Final residual = 1.06244e-05, No Iterations 1
GAMG:  Solving for Dz, Initial residual = 1.66286e-05, Final residual = 1.09135e-06, No Iterations 1
ExecutionTime = 3.1 s  ClockTime = 8 s

Iteration: 194

creating matrix for the layer 3
GAMG:  Solving for Dx, Initial residual = 0.000224401, Final residual = 2.7405e-05, No Iterations 1
GAMG:  Solving for Dy, Initial residual = 8.19734e-05, Final residual = 9.40592e-06, No Iterations 1
GAMG:  Solving for Dz, Initial residual = 1.47852e-05, Final residual = 9.71983e-07, No Iterations 1
ExecutionTime = 3.12 s  ClockTime = 8 s

Iteration: 195

creating matrix for the layer 3
GAMG:  Solving for Dx, Initial residual = 0.000202534, Final residual = 2.47743e-05, No Iterations 1
GAMG:  Solving for Dy, Initial residual = 7.27638e-05, Final residual = 8.33321e-06, No Iterations 1
GAMG:  Solving for Dz, Initial residual = 1.31535e-05, Final residual = 8.66043e-07, No Iterations 1
ExecutionTime = 3.13 s  ClockTime = 8 s

Iteration: 196

creating matrix for the layer 3
GAMG:  Solving for Dx, Initial residual = 0.000182893, Final residual = 2.24063e-05, No Iterations 1
GAMG:  Solving for Dy, Initial residual = 6.46544e-05, Final residual = 7.39159e-06, No Iterations 1
GAMG:  Solving for Dz, Initial residual = 1.17097e-05, Final residual = 7.71922e-07, No Iterations 1
ExecutionTime = 3.14 s  ClockTime = 8 s

Iteration: 197

creating matrix for the layer 3
GAMG:  Solving for Dx, Initial residual = 0.000165225, Final residual = 2.02733e-05, No Iterations 1
GAMG:  Solving for Dy, Initial residual = 5.75115e-05, Final residual = 6.56427e-06, No Iterations 1
GAMG:  Solving for Dz, Initial residual = 1.04293e-05, Final residual = 6.88352e-07, No Iterations 1
ExecutionTime = 3.15 s  ClockTime = 8 s

Iteration: 198

creating matrix for the layer 3
GAMG:  Solving for Dx, Initial residual = 0.000149321, Final residual = 1.83511e-05, No Iterations 1
GAMG:  Solving for Dy, Initial residual = 5.12204e-05, Final residual = 5.83836e-06, No Iterations 1
GAMG:  Solving for Dz, Initial residual = 9.29367e-06, Final residual = 6.14035e-07, No Iterations 1
ExecutionTime = 3.16 s  ClockTime = 8 s

Iteration: 199

creating matrix for the layer 3
GAMG:  Solving for Dx, Initial residual = 0.000134999, Final residual = 1.66175e-05, No Iterations 1
GAMG:  Solving for Dy, Initial residual = 4.56686e-05, Final residual = 5.20121e-06, No Iterations 1
GAMG:  Solving for Dz, Initial residual = 8.28818e-06, Final residual = 5.47927e-07, No Iterations 1
ExecutionTime = 3.17 s  ClockTime = 8 s

Iteration: 200

creating matrix for the layer 3
GAMG:  Solving for Dx, Initial residual = 0.000122094, Final residual = 1.5055e-05, No Iterations 1
GAMG:  Solving for Dy, Initial residual = 4.07601e-05, Final residual = 4.63961e-06, No Iterations 1
[...]
GAMG:  Solving for Dz, Initial residual = 8.83593e-05, Final residual = 2.57588e-05, No Iterations 1
ExecutionTime = 23.29 s  ClockTime = 62 s

Iteration: 1623

creating matrix for the layer 18
GAMG:  Solving for Dx, Initial residual = 0.000313686, Final residual = 0.000103728, No Iterations 1
GAMG:  Solving for Dy, Initial residual = 0.00010249, Final residual = 1.61174e-05, No Iterations 1
GAMG:  Solving for Dz, Initial residual = 8.21999e-05, Final residual = 2.3947e-05, No Iterations 1
ExecutionTime = 23.29 s  ClockTime = 62 s

Iteration: 1624

creating matrix for the layer 18
GAMG:  Solving for Dx, Initial residual = 0.000290634, Final residual = 9.6002e-05, No Iterations 1
GAMG:  Solving for Dy, Initial residual = 9.52982e-05, Final residual = 1.49939e-05, No Iterations 1
GAMG:  Solving for Dz, Initial residual = 7.6486e-05, Final residual = 2.22679e-05, No Iterations 1
ExecutionTime = 23.3 s  ClockTime = 62 s

Iteration: 1625

creating matrix for the layer 18
GAMG:  Solving for Dx, Initial residual = 0.000269371, Final residual = 8.88818e-05, No Iterations 1
GAMG:  Solving for Dy, Initial residual = 8.86321e-05, Final residual = 1.39522e-05, No Iterations 1
GAMG:  Solving for Dz, Initial residual = 7.11837e-05, Final residual = 2.07109e-05, No Iterations 1
ExecutionTime = 23.31 s  ClockTime = 62 s

Iteration: 1626

creating matrix for the layer 18
GAMG:  Solving for Dx, Initial residual = 0.000249743, Final residual = 8.23147e-05, No Iterations 1
GAMG:  Solving for Dy, Initial residual = 8.24501e-05, Final residual = 1.29855e-05, No Iterations 1
GAMG:  Solving for Dz, Initial residual = 6.62627e-05, Final residual = 1.92664e-05, No Iterations 1
ExecutionTime = 23.32 s  ClockTime = 62 s

Iteration: 1627

creating matrix for the layer 18
GAMG:  Solving for Dx, Initial residual = 0.000231623, Final residual = 7.62572e-05, No Iterations 1
GAMG:  Solving for Dy, Initial residual = 7.67154e-05, Final residual = 1.20881e-05, No Iterations 1
GAMG:  Solving for Dz, Initial residual = 6.16932e-05, Final residual = 1.79259e-05, No Iterations 1
ExecutionTime = 23.33 s  ClockTime = 62 s

Iteration: 1628

creating matrix for the layer 18
GAMG:  Solving for Dx, Initial residual = 0.000214893, Final residual = 7.06688e-05, No Iterations 1
GAMG:  Solving for Dy, Initial residual = 7.13934e-05, Final residual = 1.12548e-05, No Iterations 1
GAMG:  Solving for Dz, Initial residual = 5.74481e-05, Final residual = 1.66819e-05, No Iterations 1
ExecutionTime = 23.34 s  ClockTime = 63 s

Iteration: 1629

creating matrix for the layer 18
GAMG:  Solving for Dx, Initial residual = 0.000199437, Final residual = 6.55096e-05, No Iterations 1
GAMG:  Solving for Dy, Initial residual = 6.64524e-05, Final residual = 1.04808e-05, No Iterations 1
GAMG:  Solving for Dz, Initial residual = 5.35044e-05, Final residual = 1.55268e-05, No Iterations 1
ExecutionTime = 23.36 s  ClockTime = 63 s

Iteration: 1630

creating matrix for the layer 18
GAMG:  Solving for Dx, Initial residual = 0.000185145, Final residual = 6.07462e-05, No Iterations 1
GAMG:  Solving for Dy, Initial residual = 6.18674e-05, Final residual = 9.76174e-06, No Iterations 1
GAMG:  Solving for Dz, Initial residual = 4.98395e-05, Final residual = 1.44543e-05, No Iterations 1
ExecutionTime = 23.37 s  ClockTime = 63 s

Iteration: 1631

creating matrix for the layer 18
GAMG:  Solving for Dx, Initial residual = 0.00017192, Final residual = 5.63476e-05, No Iterations 1
GAMG:  Solving for Dy, Initial residual = 5.76103e-05, Final residual = 9.09345e-06, No Iterations 1
GAMG:  Solving for Dz, Initial residual = 4.64328e-05, Final residual = 1.34579e-05, No Iterations 1
ExecutionTime = 23.37 s  ClockTime = 63 s

Iteration: 1632

creating matrix for the layer 18
GAMG:  Solving for Dx, Initial residual = 0.000159684, Final residual = 5.22853e-05, No Iterations 1
GAMG:  Solving for Dy, Initial residual = 5.3656e-05, Final residual = 8.47219e-06, No Iterations 1
GAMG:  Solving for Dz, Initial residual = 4.3264e-05, Final residual = 1.2532e-05, No Iterations 1
ExecutionTime = 23.38 s  ClockTime = 63 s

Iteration: 1633

creating matrix for the layer 18
GAMG:  Solving for Dx, Initial residual = 0.000148356, Final residual = 4.85301e-05, No Iterations 1
GAMG:  Solving for Dy, Initial residual = 4.99833e-05, Final residual = 7.89463e-06, No Iterations 1
GAMG:  Solving for Dz, Initial residual = 4.03169e-05, Final residual = 1.16715e-05, No Iterations 1
ExecutionTime = 23.39 s  ClockTime = 63 s

Iteration: 1634

creating matrix for the layer 18
GAMG:  Solving for Dx, Initial residual = 0.000137872, Final residual = 4.5057e-05, No Iterations 1
GAMG:  Solving for Dy, Initial residual = 4.657e-05, Final residual = 7.35762e-06, No Iterations 1
GAMG:  Solving for Dz, Initial residual = 3.75762e-05, Final residual = 1.08717e-05, No Iterations 1
ExecutionTime = 23.4 s  ClockTime = 63 s

Iteration: 1635

creating matrix for the layer 18
GAMG:  Solving for Dx, Initial residual = 0.000128157, Final residual = 4.18441e-05, No Iterations 1
GAMG:  Solving for Dy, Initial residual = 4.33966e-05, Final residual = 6.85822e-06, No Iterations 1
GAMG:  Solving for Dz, Initial residual = 3.50261e-05, Final residual = 1.01283e-05, No Iterations 1
ExecutionTime = 23.41 s  ClockTime = 63 s

Iteration: 1636

creating matrix for the layer 18
GAMG:  Solving for Dx, Initial residual = 0.000119152, Final residual = 3.88712e-05, No Iterations 1
GAMG:  Solving for Dy, Initial residual = 4.04459e-05, Final residual = 6.39363e-06, No Iterations 1
GAMG:  Solving for Dz, Initial residual = 3.26535e-05, Final residual = 9.43711e-06, No Iterations 1
ExecutionTime = 23.42 s  ClockTime = 63 s

Iteration: 1637

creating matrix for the layer 18
GAMG:  Solving for Dx, Initial residual = 0.000110803, Final residual = 3.61187e-05, No Iterations 1
GAMG:  Solving for Dy, Initial residual = 3.77006e-05, Final residual = 5.96126e-06, No Iterations 1
GAMG:  Solving for Dz, Initial residual = 3.04449e-05, Final residual = 8.79436e-06, No Iterations 1
ExecutionTime = 23.42 s  ClockTime = 63 s

Iteration: 1638

creating matrix for the layer 18
GAMG:  Solving for Dx, Initial residual = 0.000103059, Final residual = 3.35705e-05, No Iterations 1
GAMG:  Solving for Dy, Initial residual = 3.51461e-05, Final residual = 5.55893e-06, No Iterations 1
GAMG:  Solving for Dz, Initial residual = 2.83884e-05, Final residual = 8.19659e-06, No Iterations 1
ExecutionTime = 23.43 s  ClockTime = 63 s

Iteration: 1639

creating matrix for the layer 18
GAMG:  Solving for Dx, Initial residual = 9.58731e-05, Final residual = 3.12091e-05, No Iterations 1
GAMG:  Solving for Dy, Initial residual = 3.27688e-05, Final residual = 5.18448e-06, No Iterations 1
GAMG:  Solving for Dz, Initial residual = 2.64733e-05, Final residual = 7.64045e-06, No Iterations 1
ExecutionTime = 23.44 s  ClockTime = 63 s

Iteration: 1640

creating matrix for the layer 18
GAMG:  Solving for Dx, Initial residual = 8.92058e-05, Final residual = 2.90207e-05, No Iterations 1
GAMG:  Solving for Dy, Initial residual = 3.05556e-05, Final residual = 4.83586e-06, No Iterations 1
GAMG:  Solving for Dz, Initial residual = 2.46899e-05, Final residual = 7.12289e-06, No Iterations 1
ExecutionTime = 23.45 s  ClockTime = 63 s

Iteration: 1641

creating matrix for the layer 18
GAMG:  Solving for Dx, Initial residual = 8.3017e-05, Final residual = 2.69929e-05, No Iterations 1
GAMG:  Solving for Dy, Initial residual = 2.84952e-05, Final residual = 4.5112e-06, No Iterations 1
GAMG:  Solving for Dz, Initial residual = 2.30289e-05, Final residual = 6.64115e-06, No Iterations 1
ExecutionTime = 23.46 s  ClockTime = 63 s

Iteration: 1642

creating matrix for the layer 18
GAMG:  Solving for Dx, Initial residual = 7.72709e-05, Final residual = 2.51124e-05, No Iterations 1
GAMG:  Solving for Dy, Initial residual = 2.65765e-05, Final residual = 4.20877e-06, No Iterations 1
GAMG:  Solving for Dz, Initial residual = 2.14819e-05, Final residual = 6.19277e-06, No Iterations 1
ExecutionTime = 23.46 s  ClockTime = 63 s

Iteration: 1643

creating matrix for the layer 18
GAMG:  Solving for Dx, Initial residual = 7.19362e-05, Final residual = 2.33682e-05, No Iterations 1
GAMG:  Solving for Dy, Initial residual = 2.47898e-05, Final residual = 3.92701e-06, No Iterations 1
GAMG:  Solving for Dz, Initial residual = 2.00406e-05, Final residual = 5.77527e-06, No Iterations 1
ExecutionTime = 23.48 s  ClockTime = 63 s

Iteration: 1644

creating matrix for the layer 18
GAMG:  Solving for Dx, Initial residual = 6.69806e-05, Final residual = 2.17498e-05, No Iterations 1
GAMG:  Solving for Dy, Initial residual = 2.31255e-05, Final residual = 3.66444e-06, No Iterations 1
GAMG:  Solving for Dz, Initial residual = 1.86973e-05, Final residual = 5.3866e-06, No Iterations 1
ExecutionTime = 23.49 s  ClockTime = 63 s

Iteration: 1645

creating matrix for the layer 18
GAMG:  Solving for Dx, Initial residual = 6.23789e-05, Final residual = 2.02475e-05, No Iterations 1
GAMG:  Solving for Dy, Initial residual = 2.15751e-05, Final residual = 3.41975e-06, No Iterations 1
GAMG:  Solving for Dz, Initial residual = 1.74456e-05, Final residual = 5.02462e-06, No Iterations 1
ExecutionTime = 23.5 s  ClockTime = 63 s

Iteration: 1646

creating matrix for the layer 18
GAMG:  Solving for Dx, Initial residual = 5.81037e-05, Final residual = 1.8853e-05, No Iterations 1
GAMG:  Solving for Dy, Initial residual = 2.01304e-05, Final residual = 3.19171e-06, No Iterations 1
GAMG:  Solving for Dz, Initial residual = 1.62791e-05, Final residual = 4.68748e-06, No Iterations 1
ExecutionTime = 23.5 s  ClockTime = 63 s

Iteration: 1647

creating matrix for the layer 18
GAMG:  Solving for Dx, Initial residual = 5.41296e-05, Final residual = 1.75581e-05, No Iterations 1
GAMG:  Solving for Dy, Initial residual = 1.87841e-05, Final residual = 2.97915e-06, No Iterations 1
GAMG:  Solving for Dz, Initial residual = 1.5192e-05, Final residual = 4.3734e-06, No Iterations 1
ExecutionTime = 23.51 s  ClockTime = 63 s

Iteration: 1648

creating matrix for the layer 18
GAMG:  Solving for Dx, Initial residual = 5.04361e-05, Final residual = 1.63546e-05, No Iterations 1
GAMG:  Solving for Dy, Initial residual = 1.75294e-05, Final residual = 2.781e-06, No Iterations 1
GAMG:  Solving for Dz, Initial residual = 1.41787e-05, Final residual = 4.08076e-06, No Iterations 1
ExecutionTime = 23.52 s  ClockTime = 63 s

Iteration: 1649

creating matrix for the layer 18
GAMG:  Solving for Dx, Initial residual = 4.70057e-05, Final residual = 1.52361e-05, No Iterations 1
GAMG:  Solving for Dy, Initial residual = 1.636e-05, Final residual = 2.59626e-06, No Iterations 1
GAMG:  Solving for Dz, Initial residual = 1.32339e-05, Final residual = 3.80808e-06, No Iterations 1
ExecutionTime = 23.53 s  ClockTime = 63 s

Iteration: 1650

creating matrix for the layer 18
GAMG:  Solving for Dx, Initial residual = 4.38141e-05, Final residual = 1.41963e-05, No Iterations 1
GAMG:  Solving for Dy, Initial residual = 1.52699e-05, Final residual = 2.42402e-06, No Iterations 1
GAMG:  Solving for Dz, Initial residual = 1.23528e-05, Final residual = 3.55396e-06, No Iterations 1
ExecutionTime = 23.54 s  ClockTime = 63 s

Iteration: 1651

creating matrix for the layer 18
GAMG:  Solving for Dx, Initial residual = 4.08439e-05, Final residual = 1.32298e-05, No Iterations 1
GAMG:  Solving for Dy, Initial residual = 1.42537e-05, Final residual = 2.2634e-06, No Iterations 1
GAMG:  Solving for Dz, Initial residual = 1.15315e-05, Final residual = 3.31709e-06, No Iterations 1
ExecutionTime = 23.55 s  ClockTime = 63 s

Iteration: 1652

creating matrix for the layer 18
GAMG:  Solving for Dx, Initial residual = 3.80819e-05, Final residual = 1.2331e-05, No Iterations 1
GAMG:  Solving for Dy, Initial residual = 1.33064e-05, Final residual = 2.11359e-06, No Iterations 1
GAMG:  Solving for Dz, Initial residual = 1.07655e-05, Final residual = 3.09627e-06, No Iterations 1
ExecutionTime = 23.56 s  ClockTime = 63 s

Iteration: 1653

creating matrix for the layer 18
GAMG:  Solving for Dx, Initial residual = 3.55113e-05, Final residual = 1.1495e-05, No Iterations 1
GAMG:  Solving for Dy, Initial residual = 1.24231e-05, Final residual = 1.97385e-06, No Iterations 1
GAMG:  Solving for Dz, Initial residual = 1.00512e-05, Final residual = 2.89039e-06, No Iterations 1
ExecutionTime = 23.57 s  ClockTime = 63 s

Iteration: 1654

creating matrix for the layer 18
GAMG:  Solving for Dx, Initial residual = 3.31181e-05, Final residual = 1.07173e-05, No Iterations 1
GAMG:  Solving for Dy, Initial residual = 1.15993e-05, Final residual = 1.84347e-06, No Iterations 1
GAMG:  Solving for Dz, Initial residual = 9.38504e-06, Final residual = 2.6984e-06, No Iterations 1
ExecutionTime = 23.58 s  ClockTime = 63 s

Iteration: 1655

creating matrix for the layer 18
GAMG:  Solving for Dx, Initial residual = 3.08898e-05, Final residual = 9.99388e-06, No Iterations 1
GAMG:  Solving for Dy, Initial residual = 1.08312e-05, Final residual = 1.72182e-06, No Iterations 1
GAMG:  Solving for Dz, Initial residual = 8.7637e-06, Final residual = 2.51937e-06, No Iterations 1
ExecutionTime = 23.58 s  ClockTime = 63 s

Iteration: 1656

creating matrix for the layer 18
GAMG:  Solving for Dx, Initial residual = 2.88143e-05, Final residual = 9.3209e-06, No Iterations 1
GAMG:  Solving for Dy, Initial residual = 1.01147e-05, Final residual = 1.60829e-06, No Iterations 1
GAMG:  Solving for Dz, Initial residual = 8.18413e-06, Final residual = 2.35241e-06, No Iterations 1
ExecutionTime = 23.59 s  ClockTime = 63 s

Iteration: 1657

creating matrix for the layer 18
GAMG:  Solving for Dx, Initial residual = 2.6881e-05, Final residual = 8.69485e-06, No Iterations 1
GAMG:  Solving for Dy, Initial residual = 9.44619e-06, Final residual = 1.50236e-06, No Iterations 1
GAMG:  Solving for Dz, Initial residual = 7.64339e-06, Final residual = 2.19667e-06, No Iterations 1
ExecutionTime = 23.6 s  ClockTime = 63 s

Iteration: 1658

creating matrix for the layer 18
GAMG:  Solving for Dx, Initial residual = 2.508e-05, Final residual = 8.11189e-06, No Iterations 1
GAMG:  Solving for Dy, Initial residual = 8.82254e-06, Final residual = 1.4035e-06, No Iterations 1
GAMG:  Solving for Dz, Initial residual = 7.13872e-06, Final residual = 2.05138e-06, No Iterations 1
ExecutionTime = 23.61 s  ClockTime = 63 s

Iteration: 1659

creating matrix for the layer 18
GAMG:  Solving for Dx, Initial residual = 2.34017e-05, Final residual = 7.56921e-06, No Iterations 1
GAMG:  Solving for Dy, Initial residual = 8.24063e-06, Final residual = 1.31123e-06, No Iterations 1
GAMG:  Solving for Dz, Initial residual = 6.66775e-06, Final residual = 1.91583e-06, No Iterations 1
ExecutionTime = 23.62 s  ClockTime = 63 s

Iteration: 1660

creating matrix for the layer 18
GAMG:  Solving for Dx, Initial residual = 2.18376e-05, Final residual = 7.06369e-06, No Iterations 1
GAMG:  Solving for Dy, Initial residual = 7.69762e-06, Final residual = 1.22513e-06, No Iterations 1
GAMG:  Solving for Dz, Initial residual = 6.22828e-06, Final residual = 1.78935e-06, No Iterations 1
ExecutionTime = 23.63 s  ClockTime = 63 s

Iteration: 1661

creating matrix for the layer 18
GAMG:  Solving for Dx, Initial residual = 2.03799e-05, Final residual = 6.59272e-06, No Iterations 1
GAMG:  Solving for Dy, Initial residual = 7.19081e-06, Final residual = 1.14477e-06, No Iterations 1
GAMG:  Solving for Dz, Initial residual = 5.8181e-06, Final residual = 1.67132e-06, No Iterations 1
ExecutionTime = 23.64 s  ClockTime = 63 s

Iteration: 1662

creating matrix for the layer 18
GAMG:  Solving for Dx, Initial residual = 1.90209e-05, Final residual = 6.15382e-06, No Iterations 1
GAMG:  Solving for Dy, Initial residual = 6.71774e-06, Final residual = 1.06975e-06, No Iterations 1
GAMG:  Solving for Dz, Initial residual = 5.43528e-06, Final residual = 1.56116e-06, No Iterations 1
ExecutionTime = 23.65 s  ClockTime = 63 s

Iteration: 1663

creating matrix for the layer 18
GAMG:  Solving for Dx, Initial residual = 1.77544e-05, Final residual = 5.74487e-06, No Iterations 1
GAMG:  Solving for Dy, Initial residual = 6.27615e-06, Final residual = 9.99719e-07, No Iterations 1
GAMG:  Solving for Dz, Initial residual = 5.0779e-06, Final residual = 1.45834e-06, No Iterations 1
ExecutionTime = 23.66 s  ClockTime = 63 s

Iteration: 1664

creating matrix for the layer 18
GAMG:  Solving for Dx, Initial residual = 1.65741e-05, Final residual = 5.36376e-06, No Iterations 1
GAMG:  Solving for Dy, Initial residual = 5.8639e-06, Final residual = 9.34325e-07, No Iterations 1
GAMG:  Solving for Dz, Initial residual = 4.74422e-06, Final residual = 1.36238e-06, No Iterations 1
ExecutionTime = 23.67 s  ClockTime = 63 s

Iteration: 1665

creating matrix for the layer 18
GAMG:  Solving for Dx, Initial residual = 1.54738e-05, Final residual = 5.00847e-06, No Iterations 1
GAMG:  Solving for Dy, Initial residual = 5.47905e-06, Final residual = 8.73256e-07, No Iterations 1
GAMG:  Solving for Dz, Initial residual = 4.43266e-06, Final residual = 1.27282e-06, No Iterations 1
ExecutionTime = 23.68 s  ClockTime = 63 s

Iteration: 1666

creating matrix for the layer 18
GAMG:  Solving for Dx, Initial residual = 1.44478e-05, Final residual = 4.67719e-06, No Iterations 1
GAMG:  Solving for Dy, Initial residual = 5.11977e-06, Final residual = 8.16224e-07, No Iterations 1
GAMG:  Solving for Dz, Initial residual = 4.14175e-06, Final residual = 1.1892e-06, No Iterations 1
ExecutionTime = 23.68 s  ClockTime = 63 s

Iteration: 1667

creating matrix for the layer 18
GAMG:  Solving for Dx, Initial residual = 1.34911e-05, Final residual = 4.3682e-06, No Iterations 1
GAMG:  Solving for Dy, Initial residual = 4.78435e-06, Final residual = 7.62957e-07, No Iterations 1
GAMG:  Solving for Dz, Initial residual = 3.87011e-06, Final residual = 1.11114e-06, No Iterations 1
ExecutionTime = 23.7 s  ClockTime = 63 s

Iteration: 1668

creating matrix for the layer 18
GAMG:  Solving for Dx, Initial residual = 1.25988e-05, Final residual = 4.08005e-06, No Iterations 1
GAMG:  Solving for Dy, Initial residual = 4.47117e-06, Final residual = 7.13205e-07, No Iterations 1
GAMG:  Solving for Dz, Initial residual = 3.61644e-06, Final residual = 1.03827e-06, No Iterations 1
ExecutionTime = 23.71 s  ClockTime = 63 s

Iteration: 1669

creating matrix for the layer 18
GAMG:  Solving for Dx, Initial residual = 1.17666e-05, Final residual = 3.81132e-06, No Iterations 1
GAMG:  Solving for Dy, Initial residual = 4.17867e-06, Final residual = 6.66735e-07, No Iterations 1
GAMG:  Solving for Dz, Initial residual = 3.37952e-06, Final residual = 9.70236e-07, No Iterations 1
ExecutionTime = 23.72 s  ClockTime = 63 s

Iteration: 1670

creating matrix for the layer 18
GAMG:  Solving for Dx, Initial residual = 1.099e-05, Final residual = 3.56064e-06, No Iterations 1
GAMG:  Solving for Dy, Initial residual = 3.9055e-06, Final residual = 6.23325e-07, No Iterations 1
GAMG:  Solving for Dz, Initial residual = 3.15826e-06, Final residual = 9.06714e-07, No Iterations 1
ExecutionTime = 23.73 s  ClockTime = 63 s

Iteration: 1671

creating matrix for the layer 18
GAMG:  Solving for Dx, Initial residual = 1.02653e-05, Final residual = 3.32674e-06, No Iterations 1
GAMG:  Solving for Dy, Initial residual = 3.65036e-06, Final residual = 5.82771e-07, No Iterations 1
GAMG:  Solving for Dz, Initial residual = 2.95163e-06, Final residual = 8.47385e-07, No Iterations 1
ExecutionTime = 23.74 s  ClockTime = 63 s

Iteration: 1672

creating matrix for the layer 18
GAMG:  Solving for Dx, Initial residual = 9.58912e-06, Final residual = 3.10843e-06, No Iterations 1
GAMG:  Solving for Dy, Initial residual = 3.41205e-06, Final residual = 5.44888e-07, No Iterations 1
GAMG:  Solving for Dz, Initial residual = 2.75862e-06, Final residual = 7.91973e-07, No Iterations 1
ExecutionTime = 23.74 s  ClockTime = 63 s


SIMPLE solution converged in 1672 iterations

End

