/*---------------------------------------------------------------------------*\
| =========                 |                                                 |
| \\      /  F ield         | OpenFOAM: The Open Source CFD Toolbox           |
|  \\    /   O peration     | Version:  2106                                  |
|   \\  /    A nd           | Website:  www.openfoam.com                      |
|    \\/     M anipulation  |                                                 |
\*---------------------------------------------------------------------------*/
Build  : _7b82832f-20210625 OPENFOAM=2106
Arch   : "LSB;label=32;scalar=64"
Exec   : polymerSolidFoam
Date   : May 19 2022
Time   : 12:48:22
Host   : 9e5438ef0753
PID    : 273
I/O    : uncollated
Case   : /home/openfoam/run/SLA/new_SLA
nProcs : 1
trapFpe: Floating point exception trapping enabled (FOAM_SIGFPE).
fileModificationChecking : Monitoring run-time modified files using timeStampMaster (fileModificationSkew 5, maxFileModificationPolls 20)
allowSystemOperations : Allowing user-supplied system call operations

// * * * * * * * * * * * * * * * * * * * * * * * * * * * * * * * * * * * * * //
Create time

Overriding DebugSwitches according to controlDict
    solutionControl 0;

Create mesh for time = 0


SIMPLE: convergence criteria
    field D	 tolerance 1e-05

Reading polymerProperties
 -- Laser exposure = 13989.2
Reading field D

Calculating mechanical properties

NUMBER OF LAYERS: 18 [0 0 0 0 0 0 0] 18

LAYER NUMBER: 1
Calculating polymeriation field

Calculating Young's modulus

Calculating Lame's coefficients

Calculating explicit part of div(sigma) divSigmaExp


SIMPLE: convergence criteria
    field D	 tolerance 1e-05


Calculating displacement field

Iteration: 1

creating matrix for the layer 1
GAMG:  Solving for Dx, Initial residual = 1, Final residual = 0.00138985, No Iterations 1
GAMG:  Solving for Dy, Initial residual = 1, Final residual = 0.075678, No Iterations 1
GAMG:  Solving for Dz, Initial residual = 1, Final residual = 0.00919694, No Iterations 1
ExecutionTime = 0.14 s  ClockTime = 0 s

Iteration: 2

creating matrix for the layer 1
GAMG:  Solving for Dx, Initial residual = 0.136745, Final residual = 0.00219258, No Iterations 1
GAMG:  Solving for Dy, Initial residual = 0.259204, Final residual = 0.00750037, No Iterations 1
GAMG:  Solving for Dz, Initial residual = 0.0176186, Final residual = 0.000600738, No Iterations 1
ExecutionTime = 0.15 s  ClockTime = 1 s

Iteration: 3

creating matrix for the layer 1
GAMG:  Solving for Dx, Initial residual = 0.118877, Final residual = 0.000971157, No Iterations 1
GAMG:  Solving for Dy, Initial residual = 0.111908, Final residual = 0.00452355, No Iterations 1
GAMG:  Solving for Dz, Initial residual = 0.00743679, Final residual = 0.000218771, No Iterations 1
ExecutionTime = 0.15 s  ClockTime = 1 s

Iteration: 4

creating matrix for the layer 1
GAMG:  Solving for Dx, Initial residual = 0.059622, Final residual = 0.00073194, No Iterations 1
GAMG:  Solving for Dy, Initial residual = 0.0633146, Final residual = 0.00229348, No Iterations 1
GAMG:  Solving for Dz, Initial residual = 0.00461449, Final residual = 0.000165918, No Iterations 1
ExecutionTime = 0.16 s  ClockTime = 1 s

Iteration: 5

creating matrix for the layer 1
GAMG:  Solving for Dx, Initial residual = 0.049171, Final residual = 0.00047031, No Iterations 1
GAMG:  Solving for Dy, Initial residual = 0.0476814, Final residual = 0.0018315, No Iterations 1
GAMG:  Solving for Dz, Initial residual = 0.00349376, Final residual = 0.000128159, No Iterations 1
ExecutionTime = 0.17 s  ClockTime = 1 s

Iteration: 6

creating matrix for the layer 1
GAMG:  Solving for Dx, Initial residual = 0.0376308, Final residual = 0.00038621, No Iterations 1
GAMG:  Solving for Dy, Initial residual = 0.0358827, Final residual = 0.00127142, No Iterations 1
GAMG:  Solving for Dz, Initial residual = 0.00309697, Final residual = 0.000111447, No Iterations 1
ExecutionTime = 0.18 s  ClockTime = 1 s

Iteration: 7

creating matrix for the layer 1
GAMG:  Solving for Dx, Initial residual = 0.0320607, Final residual = 0.000296487, No Iterations 1
GAMG:  Solving for Dy, Initial residual = 0.0288773, Final residual = 0.00102856, No Iterations 1
GAMG:  Solving for Dz, Initial residual = 0.00264294, Final residual = 9.5771e-05, No Iterations 1
ExecutionTime = 0.19 s  ClockTime = 1 s

Iteration: 8

creating matrix for the layer 1
GAMG:  Solving for Dx, Initial residual = 0.0268737, Final residual = 0.000253627, No Iterations 1
GAMG:  Solving for Dy, Initial residual = 0.0230711, Final residual = 0.000804333, No Iterations 1
GAMG:  Solving for Dz, Initial residual = 0.00236477, Final residual = 8.49995e-05, No Iterations 1
ExecutionTime = 0.19 s  ClockTime = 1 s

Iteration: 9

creating matrix for the layer 1
GAMG:  Solving for Dx, Initial residual = 0.0232435, Final residual = 0.000212997, No Iterations 1
GAMG:  Solving for Dy, Initial residual = 0.0193137, Final residual = 0.000672885, No Iterations 1
GAMG:  Solving for Dz, Initial residual = 0.00207184, Final residual = 7.48085e-05, No Iterations 1
ExecutionTime = 0.2 s  ClockTime = 1 s

Iteration: 10

creating matrix for the layer 1
GAMG:  Solving for Dx, Initial residual = 0.0201691, Final residual = 0.000186811, No Iterations 1
GAMG:  Solving for Dy, Initial residual = 0.0160378, Final residual = 0.000558157, No Iterations 1
GAMG:  Solving for Dz, Initial residual = 0.00185226, Final residual = 6.65022e-05, No Iterations 1
ExecutionTime = 0.21 s  ClockTime = 1 s

Iteration: 11

creating matrix for the layer 1
GAMG:  Solving for Dx, Initial residual = 0.0176864, Final residual = 0.000163582, No Iterations 1
GAMG:  Solving for Dy, Initial residual = 0.0135987, Final residual = 0.000477373, No Iterations 1
GAMG:  Solving for Dz, Initial residual = 0.0016353, Final residual = 5.88736e-05, No Iterations 1
ExecutionTime = 0.22 s  ClockTime = 1 s

Iteration: 12

creating matrix for the layer 1
GAMG:  Solving for Dx, Initial residual = 0.0155584, Final residual = 0.000145053, No Iterations 1
GAMG:  Solving for Dy, Initial residual = 0.0115406, Final residual = 0.000407034, No Iterations 1
GAMG:  Solving for Dz, Initial residual = 0.00145885, Final residual = 5.23204e-05, No Iterations 1
ExecutionTime = 0.22 s  ClockTime = 1 s

Iteration: 13

creating matrix for the layer 1
GAMG:  Solving for Dx, Initial residual = 0.0137655, Final residual = 0.000129062, No Iterations 1
GAMG:  Solving for Dy, Initial residual = 0.0098856, Final residual = 0.000351166, No Iterations 1
GAMG:  Solving for Dz, Initial residual = 0.00129232, Final residual = 4.6376e-05, No Iterations 1
ExecutionTime = 0.23 s  ClockTime = 1 s

Iteration: 14

creating matrix for the layer 1
GAMG:  Solving for Dx, Initial residual = 0.0122117, Final residual = 0.000115167, No Iterations 1
GAMG:  Solving for Dy, Initial residual = 0.00849557, Final residual = 0.000302761, No Iterations 1
GAMG:  Solving for Dz, Initial residual = 0.00114947, Final residual = 4.11545e-05, No Iterations 1
ExecutionTime = 0.24 s  ClockTime = 1 s

Iteration: 15

creating matrix for the layer 1
GAMG:  Solving for Dx, Initial residual = 0.0108722, Final residual = 0.000103239, No Iterations 1
GAMG:  Solving for Dy, Initial residual = 0.00733193, Final residual = 0.00026269, No Iterations 1
GAMG:  Solving for Dz, Initial residual = 0.0010188, Final residual = 3.64587e-05, No Iterations 1
ExecutionTime = 0.24 s  ClockTime = 1 s

Iteration: 16

creating matrix for the layer 1
GAMG:  Solving for Dx, Initial residual = 0.00970092, Final residual = 9.26281e-05, No Iterations 1
GAMG:  Solving for Dy, Initial residual = 0.00634437, Final residual = 0.000227973, No Iterations 1
GAMG:  Solving for Dz, Initial residual = 0.000904334, Final residual = 3.23062e-05, No Iterations 1
ExecutionTime = 0.25 s  ClockTime = 1 s

Iteration: 17

creating matrix for the layer 1
GAMG:  Solving for Dx, Initial residual = 0.00867739, Final residual = 8.33245e-05, No Iterations 1
GAMG:  Solving for Dy, Initial residual = 0.00550446, Final residual = 0.000198532, No Iterations 1
GAMG:  Solving for Dz, Initial residual = 0.000801264, Final residual = 2.85954e-05, No Iterations 1
ExecutionTime = 0.26 s  ClockTime = 1 s

Iteration: 18

creating matrix for the layer 1
GAMG:  Solving for Dx, Initial residual = 0.00777604, Final residual = 7.50334e-05, No Iterations 1
GAMG:  Solving for Dy, Initial residual = 0.00478487, Final residual = 0.000173003, No Iterations 1
GAMG:  Solving for Dz, Initial residual = 0.000710251, Final residual = 2.53074e-05, No Iterations 1
ExecutionTime = 0.27 s  ClockTime = 1 s

Iteration: 19

creating matrix for the layer 1
GAMG:  Solving for Dx, Initial residual = 0.00698119, Final residual = 6.76796e-05, No Iterations 1
GAMG:  Solving for Dy, Initial residual = 0.00416697, Final residual = 0.000151063, No Iterations 1
GAMG:  Solving for Dz, Initial residual = 0.000628958, Final residual = 2.23817e-05, No Iterations 1
ExecutionTime = 0.27 s  ClockTime = 1 s

Iteration: 20

creating matrix for the layer 1
GAMG:  Solving for Dx, Initial residual = 0.00627683, Final residual = 6.11051e-05, No Iterations 1
GAMG:  Solving for Dy, Initial residual = 0.00363398, Final residual = 0.000131998, No Iterations 1
GAMG:  Solving for Dz, Initial residual = 0.000556999, Final residual = 1.97894e-05, No Iterations 1
ExecutionTime = 0.28 s  ClockTime = 1 s

Iteration: 21

creating matrix for the layer 1
GAMG:  Solving for Dx, Initial residual = 0.00565153, Final residual = 5.52328e-05, No Iterations 1
GAMG:  Solving for Dy, Initial residual = 0.00317325, Final residual = 0.000115482, No Iterations 1
GAMG:  Solving for Dz, Initial residual = 0.000493001, Final residual = 1.74894e-05, No Iterations 1
ExecutionTime = 0.3 s  ClockTime = 1 s

Iteration: 22

creating matrix for the layer 1
GAMG:  Solving for Dx, Initial residual = 0.00509466, Final residual = 4.99654e-05, No Iterations 1
GAMG:  Solving for Dy, Initial residual = 0.00277384, Final residual = 0.000101099, No Iterations 1
GAMG:  Solving for Dz, Initial residual = 0.000436323, Final residual = 1.54526e-05, No Iterations 1
ExecutionTime = 0.3 s  ClockTime = 1 s

Iteration: 23

creating matrix for the layer 1
GAMG:  Solving for Dx, Initial residual = 0.00459776, Final residual = 4.52393e-05, No Iterations 1
GAMG:  Solving for Dy, Initial residual = 0.00242694, Final residual = 8.85807e-05, No Iterations 1
GAMG:  Solving for Dz, Initial residual = 0.000386035, Final residual = 1.36485e-05, No Iterations 1
ExecutionTime = 0.31 s  ClockTime = 1 s

Iteration: 24

creating matrix for the layer 1
GAMG:  Solving for Dx, Initial residual = 0.00415334, Final residual = 4.09891e-05, No Iterations 1
GAMG:  Solving for Dy, Initial residual = 0.00212501, Final residual = 7.76529e-05, No Iterations 1
GAMG:  Solving for Dz, Initial residual = 0.00034151, Final residual = 1.20523e-05, No Iterations 1
ExecutionTime = 0.32 s  ClockTime = 1 s

Iteration: 25

creating matrix for the layer 1
GAMG:  Solving for Dx, Initial residual = 0.00375521, Final residual = 3.7162e-05, No Iterations 1
GAMG:  Solving for Dy, Initial residual = 0.00186191, Final residual = 6.81131e-05, No Iterations 1
GAMG:  Solving for Dz, Initial residual = 0.000302062, Final residual = 1.06402e-05, No Iterations 1
ExecutionTime = 0.33 s  ClockTime = 1 s

Iteration: 26

creating matrix for the layer 1
GAMG:  Solving for Dx, Initial residual = 0.00339791, Final residual = 3.37098e-05, No Iterations 1
GAMG:  Solving for Dy, Initial residual = 0.00163232, Final residual = 5.97702e-05, No Iterations 1
GAMG:  Solving for Dz, Initial residual = 0.000267148, Final residual = 9.39176e-06, No Iterations 1
ExecutionTime = 0.33 s  ClockTime = 1 s

Iteration: 27

creating matrix for the layer 1
GAMG:  Solving for Dx, Initial residual = 0.00307681, Final residual = 3.05935e-05, No Iterations 1
GAMG:  Solving for Dy, Initial residual = 0.00143175, Final residual = 5.2471e-05, No Iterations 1
GAMG:  Solving for Dz, Initial residual = 0.000236243, Final residual = 8.28837e-06, No Iterations 1
ExecutionTime = 0.34 s  ClockTime = 1 s

Iteration: 28

creating matrix for the layer 1
GAMG:  Solving for Dx, Initial residual = 0.00278785, Final residual = 2.77769e-05, No Iterations 1
GAMG:  Solving for Dy, Initial residual = 0.00125639, Final residual = 4.60779e-05, No Iterations 1
GAMG:  Solving for Dz, Initial residual = 0.000208903, Final residual = 7.31359e-06, No Iterations 1
ExecutionTime = 0.35 s  ClockTime = 1 s

Iteration: 29

creating matrix for the layer 1
GAMG:  Solving for Dx, Initial residual = 0.00252751, Final residual = 2.52289e-05, No Iterations 1
GAMG:  Solving for Dy, Initial residual = 0.00110293, Final residual = 4.04759e-05, No Iterations 1
GAMG:  Solving for Dz, Initial residual = 0.000184715, Final residual = 6.45252e-06, No Iterations 1
ExecutionTime = 0.35 s  ClockTime = 1 s

Iteration: 30

creating matrix for the layer 1
GAMG:  Solving for Dx, Initial residual = 0.00229268, Final residual = 2.29222e-05, No Iterations 1
GAMG:  Solving for Dy, Initial residual = 0.000968513, Final residual = 3.55636e-05, No Iterations 1
GAMG:  Solving for Dz, Initial residual = 0.000163324, Final residual = 5.69211e-06, No Iterations 1
ExecutionTime = 0.36 s  ClockTime = 1 s

Iteration: 31

creating matrix for the layer 1
GAMG:  Solving for Dx, Initial residual = 0.00208068, Final residual = 2.08325e-05, No Iterations 1
GAMG:  Solving for Dy, Initial residual = 0.000850697, Final residual = 3.12545e-05, No Iterations 1
GAMG:  Solving for Dz, Initial residual = 0.000144407, Final residual = 5.02073e-06, No Iterations 1
ExecutionTime = 0.37 s  ClockTime = 1 s

Iteration: 32

creating matrix for the layer 1
GAMG:  Solving for Dx, Initial residual = 0.0018891, Final residual = 1.89377e-05, No Iterations 1
GAMG:  Solving for Dy, Initial residual = 0.000747409, Final residual = 2.74725e-05, No Iterations 1
GAMG:  Solving for Dz, Initial residual = 0.000127682, Final residual = 4.42808e-06, No Iterations 1
ExecutionTime = 0.37 s  ClockTime = 1 s

Iteration: 33

creating matrix for the layer 1
GAMG:  Solving for Dx, Initial residual = 0.00171584, Final residual = 1.72191e-05, No Iterations 1
GAMG:  Solving for Dy, Initial residual = 0.00065679, Final residual = 2.4152e-05, No Iterations 1
GAMG:  Solving for Dz, Initial residual = 0.000112895, Final residual = 3.90503e-06, No Iterations 1
ExecutionTime = 0.38 s  ClockTime = 1 s

Iteration: 34

creating matrix for the layer 1
GAMG:  Solving for Dx, Initial residual = 0.00155902, Final residual = 1.56635e-05, No Iterations 1
GAMG:  Solving for Dy, Initial residual = 0.000577253, Final residual = 2.12356e-05, No Iterations 1
GAMG:  Solving for Dz, Initial residual = 9.98233e-05, Final residual = 3.44347e-06, No Iterations 1
ExecutionTime = 0.39 s  ClockTime = 1 s

Iteration: 35

creating matrix for the layer 1
GAMG:  Solving for Dx, Initial residual = 0.001417, Final residual = 1.42565e-05, No Iterations 1
GAMG:  Solving for Dy, Initial residual = 0.000507434, Final residual = 1.86734e-05, No Iterations 1
GAMG:  Solving for Dz, Initial residual = 8.82681e-05, Final residual = 3.03624e-06, No Iterations 1
ExecutionTime = 0.39 s  ClockTime = 1 s

Iteration: 36

creating matrix for the layer 1
GAMG:  Solving for Dx, Initial residual = 0.0012883, Final residual = 1.29774e-05, No Iterations 1
GAMG:  Solving for Dy, Initial residual = 0.000446107, Final residual = 1.64218e-05, No Iterations 1
GAMG:  Solving for Dz, Initial residual = 7.80541e-05, Final residual = 2.67699e-06, No Iterations 1
ExecutionTime = 0.4 s  ClockTime = 1 s

Iteration: 37

creating matrix for the layer 1
GAMG:  Solving for Dx, Initial residual = 0.00117161, Final residual = 1.18143e-05, No Iterations 1
GAMG:  Solving for Dy, Initial residual = 0.000392226, Final residual = 1.44429e-05, No Iterations 1
GAMG:  Solving for Dz, Initial residual = 6.90258e-05, Final residual = 2.3601e-06, No Iterations 1
ExecutionTime = 0.41 s  ClockTime = 1 s

Iteration: 38

creating matrix for the layer 1
GAMG:  Solving for Dx, Initial residual = 0.00106575, Final residual = 1.0757e-05, No Iterations 1
GAMG:  Solving for Dy, Initial residual = 0.000344876, Final residual = 1.27032e-05, No Iterations 1
GAMG:  Solving for Dz, Initial residual = 6.10458e-05, Final residual = 2.0806e-06, No Iterations 1
ExecutionTime = 0.42 s  ClockTime = 1 s

Iteration: 39

creating matrix for the layer 1
GAMG:  Solving for Dx, Initial residual = 0.000969681, Final residual = 9.79517e-06, No Iterations 1
GAMG:  Solving for Dy, Initial residual = 0.000303259, Final residual = 1.11735e-05, No Iterations 1
GAMG:  Solving for Dz, Initial residual = 5.39922e-05, Final residual = 1.8341e-06, No Iterations 1
ExecutionTime = 0.42 s  ClockTime = 1 s

Iteration: 40

creating matrix for the layer 1
GAMG:  Solving for Dx, Initial residual = 0.00088245, Final residual = 8.91988e-06, No Iterations 1
GAMG:  Solving for Dy, Initial residual = 0.00026669, Final residual = 9.82845e-06, No Iterations 1
GAMG:  Solving for Dz, Initial residual = 4.77575e-05, Final residual = 1.61673e-06, No Iterations 1
ExecutionTime = 0.43 s  ClockTime = 1 s

Iteration: 41

creating matrix for the layer 1
GAMG:  Solving for Dx, Initial residual = 0.000803219, Final residual = 8.12323e-06, No Iterations 1
GAMG:  Solving for Dy, Initial residual = 0.000234538, Final residual = 8.64581e-06, No Iterations 1
GAMG:  Solving for Dz, Initial residual = 4.22464e-05, Final residual = 1.42506e-06, No Iterations 1
ExecutionTime = 0.44 s  ClockTime = 1 s

Iteration: 42

creating matrix for the layer 1
GAMG:  Solving for Dx, Initial residual = 0.00073123, Final residual = 7.39829e-06, No Iterations 1
GAMG:  Solving for Dy, Initial residual = 0.000206266, Final residual = 7.60579e-06, No Iterations 1
GAMG:  Solving for Dz, Initial residual = 3.73748e-05, Final residual = 1.25607e-06, No Iterations 1
ExecutionTime = 0.44 s  ClockTime = 1 s

Iteration: 43

creating matrix for the layer 1
GAMG:  Solving for Dx, Initial residual = 0.000665801, Final residual = 6.7383e-06, No Iterations 1
GAMG:  Solving for Dy, Initial residual = 0.000181403, Final residual = 6.69099e-06, No Iterations 1
GAMG:  Solving for Dz, Initial residual = 3.30683e-05, Final residual = 1.10708e-06, No Iterations 1
ExecutionTime = 0.45 s  ClockTime = 1 s

Iteration: 44

creating matrix for the layer 1
GAMG:  Solving for Dx, Initial residual = 0.000606316, Final residual = 6.13731e-06, No Iterations 1
GAMG:  Solving for Dy, Initial residual = 0.000159541, Final residual = 5.88624e-06, No Iterations 1
GAMG:  Solving for Dz, Initial residual = 2.92612e-05, Final residual = 9.75722e-07, No Iterations 1
ExecutionTime = 0.46 s  ClockTime = 1 s

Iteration: 45

creating matrix for the layer 1
GAMG:  Solving for Dx, Initial residual = 0.000552221, Final residual = 5.59004e-06, No Iterations 1
GAMG:  Solving for Dy, Initial residual = 0.00014033, Final residual = 5.17828e-06, No Iterations 1
GAMG:  Solving for Dz, Initial residual = 2.58953e-05, Final residual = 8.59923e-07, No Iterations 1
ExecutionTime = 0.47 s  ClockTime = 1 s

Iteration: 46

creating matrix for the layer 1
GAMG:  Solving for Dx, Initial residual = 0.000503013, Final residual = 5.09163e-06, No Iterations 1
GAMG:  Solving for Dy, Initial residual = 0.000123435, Final residual = 4.55557e-06, No Iterations 1
GAMG:  Solving for Dz, Initial residual = 2.29194e-05, Final residual = 7.57843e-07, No Iterations 1
ExecutionTime = 0.48 s  ClockTime = 1 s

Iteration: 47

creating matrix for the layer 1
GAMG:  Solving for Dx, Initial residual = 0.000458243, Final residual = 4.63769e-06, No Iterations 1
GAMG:  Solving for Dy, Initial residual = 0.000108577, Final residual = 4.00783e-06, No Iterations 1
GAMG:  Solving for Dz, Initial residual = 2.02879e-05, Final residual = 6.67862e-07, No Iterations 1
ExecutionTime = 0.49 s  ClockTime = 1 s

Iteration: 48

creating matrix for the layer 1
GAMG:  Solving for Dx, Initial residual = 0.000417501, Final residual = 4.22424e-06, No Iterations 1
GAMG:  Solving for Dy, Initial residual = 9.55341e-05, Final residual = 3.52594e-06, No Iterations 1
GAMG:  Solving for Dz, Initial residual = 1.79609e-05, Final residual = 5.88549e-07, No Iterations 1
ExecutionTime = 0.5 s  ClockTime = 1 s

Iteration: 49

creating matrix for the layer 1
GAMG:  Solving for Dx, Initial residual = 0.000380418, Final residual = 3.84767e-06, No Iterations 1
GAMG:  Solving for Dy, Initial residual = 8.40935e-05, Final residual = 3.10191e-06, No Iterations 1
GAMG:  Solving for Dz, Initial residual = 1.59029e-05, Final residual = 5.18644e-07, No Iterations 1
ExecutionTime = 0.51 s  ClockTime = 1 s

Iteration: 50

creating matrix for the layer 1
GAMG:  Solving for Dx, Initial residual = 0.00034666, Final residual = 3.50466e-06, No Iterations 1
GAMG:  Solving for Dy, Initial residual = 7.40494e-05, Final residual = 2.72879e-06, No Iterations 1
GAMG:  Solving for Dz, Initial residual = 1.40828e-05, Final residual = 4.57034e-07, No Iterations 1
ExecutionTime = 0.51 s  ClockTime = 1 s

Iteration: 51

creating matrix for the layer 1
GAMG:  Solving for Dx, Initial residual = 0.000315924, Final residual = 3.19223e-06, No Iterations 1
GAMG:  Solving for Dy, Initial residual = 6.52071e-05, Final residual = 2.40053e-06, No Iterations 1
GAMG:  Solving for Dz, Initial residual = 1.24727e-05, Final residual = 4.02736e-07, No Iterations 1
ExecutionTime = 0.52 s  ClockTime = 1 s

Iteration: 52

creating matrix for the layer 1
GAMG:  Solving for Dx, Initial residual = 0.000287934, Final residual = 2.90763e-06, No Iterations 1
GAMG:  Solving for Dy, Initial residual = 5.74241e-05, Final residual = 2.11216e-06, No Iterations 1
GAMG:  Solving for Dz, Initial residual = 1.10484e-05, Final residual = 3.54931e-07, No Iterations 1
ExecutionTime = 0.53 s  ClockTime = 1 s

Iteration: 53

creating matrix for the layer 1
GAMG:  Solving for Dx, Initial residual = 0.000262443, Final residual = 2.6484e-06, No Iterations 1
GAMG:  Solving for Dy, Initial residual = 5.0571e-05, Final residual = 1.85894e-06, No Iterations 1
GAMG:  Solving for Dz, Initial residual = 9.78834e-06, Final residual = 3.12827e-07, No Iterations 1
ExecutionTime = 0.54 s  ClockTime = 1 s

Iteration: 54

creating matrix for the layer 1
GAMG:  Solving for Dx, Initial residual = 0.000239224, Final residual = 2.41225e-06, No Iterations 1
GAMG:  Solving for Dy, Initial residual = 4.45372e-05, Final residual = 1.63612e-06, No Iterations 1
GAMG:  Solving for Dz, Initial residual = 8.67334e-06, Final residual = 2.75716e-07, No Iterations 1
ExecutionTime = 0.55 s  ClockTime = 1 s

Iteration: 55

creating matrix for the layer 1
GAMG:  Solving for Dx, Initial residual = 0.000218073, Final residual = 2.19716e-06, No Iterations 1
GAMG:  Solving for Dy, Initial residual = 3.92243e-05, Final residual = 1.44001e-06, No Iterations 1
GAMG:  Solving for Dz, Initial residual = 7.68782e-06, Final residual = 2.43007e-07, No Iterations 1
ExecutionTime = 0.56 s  ClockTime = 1 s

Iteration: 56

creating matrix for the layer 1
GAMG:  Solving for Dx, Initial residual = 0.000198803, Final residual = 2.00122e-06, No Iterations 1
GAMG:  Solving for Dy, Initial residual = 3.4548e-05, Final residual = 1.26748e-06, No Iterations 1
GAMG:  Solving for Dz, Initial residual = 6.8158e-06, Final residual = 2.14188e-07, No Iterations 1
ExecutionTime = 0.56 s  ClockTime = 1 s

Iteration: 57

creating matrix for the layer 1
GAMG:  Solving for Dx, Initial residual = 0.000181245, Final residual = 1.82274e-06, No Iterations 1
GAMG:  Solving for Dy, Initial residual = 3.04313e-05, Final residual = 1.11568e-06, No Iterations 1
GAMG:  Solving for Dz, Initial residual = 6.04379e-06, Final residual = 1.88791e-07, No Iterations 1
ExecutionTime = 0.57 s  ClockTime = 1 s

Iteration: 58

creating matrix for the layer 1
GAMG:  Solving for Dx, Initial residual = 0.000165246, Final residual = 1.66022e-06, No Iterations 1
GAMG:  Solving for Dy, Initial residual = 2.68055e-05, Final residual = 9.82406e-07, No Iterations 1
GAMG:  Solving for Dz, Initial residual = 5.36023e-06, Final residual = 1.66411e-07, No Iterations 1
ExecutionTime = 0.58 s  ClockTime = 1 s

Iteration: 59

creating matrix for the layer 1
GAMG:  Solving for Dx, Initial residual = 0.000150666, Final residual = 1.51219e-06, No Iterations 1
GAMG:  Solving for Dy, Initial residual = 2.36122e-05, Final residual = 8.65144e-07, No Iterations 1
GAMG:  Solving for Dz, Initial residual = 4.75839e-06, Final residual = 1.46695e-07, No Iterations 1
ExecutionTime = 0.58 s  ClockTime = 1 s

Iteration: 60

creating matrix for the layer 1
GAMG:  Solving for Dx, Initial residual = 0.000137378, Final residual = 1.37733e-06, No Iterations 1
GAMG:  Solving for Dy, Initial residual = 2.0801e-05, Final residual = 7.61924e-07, No Iterations 1
GAMG:  Solving for Dz, Initial residual = 4.2296e-06, Final residual = 1.29333e-07, No Iterations 1
ExecutionTime = 0.59 s  ClockTime = 1 s

Iteration: 61

creating matrix for the layer 1
GAMG:  Solving for Dx, Initial residual = 0.000125267, Final residual = 1.25449e-06, No Iterations 1
GAMG:  Solving for Dy, Initial residual = 1.83269e-05, Final residual = 6.71092e-07, No Iterations 1
GAMG:  Solving for Dz, Initial residual = 3.76127e-06, Final residual = 1.14028e-07, No Iterations 1
ExecutionTime = 0.6 s  ClockTime = 1 s

Iteration: 62

creating matrix for the layer 1
GAMG:  Solving for Dx, Initial residual = 0.000114228, Final residual = 1.14258e-06, No Iterations 1
GAMG:  Solving for Dy, Initial residual = 1.61508e-05, Final residual = 5.91168e-07, No Iterations 1
GAMG:  Solving for Dz, Initial residual = 3.34562e-06, Final residual = 1.00537e-07, No Iterations 1
ExecutionTime = 0.61 s  ClockTime = 1 s

Iteration: 63

creating matrix for the layer 1
GAMG:  Solving for Dx, Initial residual = 0.000104166, Final residual = 1.04068e-06, No Iterations 1
GAMG:  Solving for Dy, Initial residual = 1.42352e-05, Final residual = 5.20795e-07, No Iterations 1
GAMG:  Solving for Dz, Initial residual = 2.97666e-06, Final residual = 8.86464e-08, No Iterations 1
ExecutionTime = 0.62 s  ClockTime = 1 s

Iteration: 64

creating matrix for the layer 1
GAMG:  Solving for Dx, Initial residual = 9.49926e-05, Final residual = 9.48246e-07, No Iterations 1
GAMG:  Solving for Dy, Initial residual = 1.25492e-05, Final residual = 4.58831e-07, No Iterations 1
GAMG:  Solving for Dz, Initial residual = 2.64906e-06, Final residual = 7.81925e-08, No Iterations 1
ExecutionTime = 0.63 s  ClockTime = 1 s

Iteration: 65

creating matrix for the layer 1
GAMG:  Solving for Dx, Initial residual = 8.663e-05, Final residual = 8.64107e-07, No Iterations 1
GAMG:  Solving for Dy, Initial residual = 1.10696e-05, Final residual = 4.04289e-07, No Iterations 1
GAMG:  Solving for Dz, Initial residual = 2.35813e-06, Final residual = 6.90413e-08, No Iterations 1
ExecutionTime = 0.64 s  ClockTime = 1 s

Iteration: 66

creating matrix for the layer 1
GAMG:  Solving for Dx, Initial residual = 7.90059e-05, Final residual = 7.87434e-07, No Iterations 1
GAMG:  Solving for Dy, Initial residual = 9.77398e-06, Final residual = 3.56375e-07, No Iterations 1
GAMG:  Solving for Dz, Initial residual = 2.0997e-06, Final residual = 6.10571e-08, No Iterations 1
ExecutionTime = 0.64 s  ClockTime = 1 s

Iteration: 67

creating matrix for the layer 1
GAMG:  Solving for Dx, Initial residual = 7.20546e-05, Final residual = 7.17564e-07, No Iterations 1
GAMG:  Solving for Dy, Initial residual = 8.63873e-06, Final residual = 3.14222e-07, No Iterations 1
GAMG:  Solving for Dz, Initial residual = 1.8701e-06, Final residual = 5.40192e-08, No Iterations 1
ExecutionTime = 0.65 s  ClockTime = 1 s

Iteration: 68

creating matrix for the layer 1
GAMG:  Solving for Dx, Initial residual = 6.57167e-05, Final residual = 6.53893e-07, No Iterations 1
GAMG:  Solving for Dy, Initial residual = 7.63805e-06, Final residual = 2.77383e-07, No Iterations 1
GAMG:  Solving for Dz, Initial residual = 1.66607e-06, Final residual = 4.78018e-08, No Iterations 1
ExecutionTime = 0.66 s  ClockTime = 1 s

Iteration: 69

creating matrix for the layer 1
GAMG:  Solving for Dx, Initial residual = 5.99377e-05, Final residual = 5.95872e-07, No Iterations 1
GAMG:  Solving for Dy, Initial residual = 6.75469e-06, Final residual = 2.44982e-07, No Iterations 1
GAMG:  Solving for Dz, Initial residual = 1.4847e-06, Final residual = 4.23082e-08, No Iterations 1
ExecutionTime = 0.67 s  ClockTime = 1 s

Iteration: 70

creating matrix for the layer 1
GAMG:  Solving for Dx, Initial residual = 5.46682e-05, Final residual = 5.43001e-07, No Iterations 1
GAMG:  Solving for Dy, Initial residual = 5.97496e-06, Final residual = 2.16455e-07, No Iterations 1
GAMG:  Solving for Dz, Initial residual = 1.32346e-06, Final residual = 3.74579e-08, No Iterations 1
ExecutionTime = 0.67 s  ClockTime = 1 s

Iteration: 71

creating matrix for the layer 1
GAMG:  Solving for Dx, Initial residual = 4.98631e-05, Final residual = 4.94824e-07, No Iterations 1
GAMG:  Solving for Dy, Initial residual = 5.28612e-06, Final residual = 1.91313e-07, No Iterations 1
GAMG:  Solving for Dz, Initial residual = 1.18006e-06, Final residual = 3.3173e-08, No Iterations 1
ExecutionTime = 0.68 s  ClockTime = 1 s

Iteration: 72

creating matrix for the layer 1
GAMG:  Solving for Dx, Initial residual = 4.54812e-05, Final residual = 4.50968e-07, No Iterations 1
GAMG:  Solving for Dy, Initial residual = 4.67765e-06, Final residual = 1.69159e-07, No Iterations 1
GAMG:  Solving for Dz, Initial residual = 1.05251e-06, Final residual = 2.93844e-08, No Iterations 1
ExecutionTime = 0.69 s  ClockTime = 2 s

Iteration: 73

creating matrix for the layer 1
GAMG:  Solving for Dx, Initial residual = 4.14852e-05, Final residual = 4.1104e-07, No Iterations 1
GAMG:  Solving for Dy, Initial residual = 4.14049e-06, Final residual = 1.49639e-07, No Iterations 1
GAMG:  Solving for Dz, Initial residual = 9.39015e-07, Final residual = 9.39015e-07, No Iterations 0
ExecutionTime = 0.7 s  ClockTime = 2 s

Iteration: 74

creating matrix for the layer 1
GAMG:  Solving for Dx, Initial residual = 3.75344e-05, Final residual = 3.69401e-07, No Iterations 1
GAMG:  Solving for Dy, Initial residual = 3.36316e-06, Final residual = 1.16512e-07, No Iterations 1
GAMG:  Solving for Dz, Initial residual = 1.62244e-06, Final residual = 4.19786e-08, No Iterations 1
ExecutionTime = 0.71 s  ClockTime = 2 s

Iteration: 75

creating matrix for the layer 1
GAMG:  Solving for Dx, Initial residual = 3.45766e-05, Final residual = 3.42923e-07, No Iterations 1
GAMG:  Solving for Dy, Initial residual = 3.59533e-06, Final residual = 1.27003e-07, No Iterations 1
GAMG:  Solving for Dz, Initial residual = 8.23929e-07, Final residual = 8.23929e-07, No Iterations 0
ExecutionTime = 0.73 s  ClockTime = 2 s

Iteration: 76

creating matrix for the layer 1
GAMG:  Solving for Dx, Initial residual = 3.12682e-05, Final residual = 3.06687e-07, No Iterations 1
GAMG:  Solving for Dy, Initial residual = 2.65817e-06, Final residual = 9.27694e-08, No Iterations 1
GAMG:  Solving for Dz, Initial residual = 1.39163e-06, Final residual = 3.66454e-08, No Iterations 1
ExecutionTime = 0.73 s  ClockTime = 2 s

Iteration: 77

creating matrix for the layer 1
GAMG:  Solving for Dx, Initial residual = 2.88032e-05, Final residual = 2.85476e-07, No Iterations 1
GAMG:  Solving for Dy, Initial residual = 2.93201e-06, Final residual = 1.02419e-07, No Iterations 1
GAMG:  Solving for Dz, Initial residual = 6.82494e-07, Final residual = 6.82494e-07, No Iterations 0
ExecutionTime = 0.75 s  ClockTime = 2 s

Iteration: 78

creating matrix for the layer 1
GAMG:  Solving for Dx, Initial residual = 2.60399e-05, Final residual = 2.54953e-07, No Iterations 1
GAMG:  Solving for Dy, Initial residual = 2.11126e-06, Final residual = 7.35094e-08, No Iterations 1
GAMG:  Solving for Dz, Initial residual = 1.13715e-06, Final residual = 3.00026e-08, No Iterations 1
ExecutionTime = 0.76 s  ClockTime = 2 s

Iteration: 79

creating matrix for the layer 1
GAMG:  Solving for Dx, Initial residual = 2.39833e-05, Final residual = 2.37506e-07, No Iterations 1
GAMG:  Solving for Dy, Initial residual = 2.35753e-06, Final residual = 8.17729e-08, No Iterations 1
GAMG:  Solving for Dz, Initial residual = 5.53515e-07, Final residual = 5.53515e-07, No Iterations 0
ExecutionTime = 0.77 s  ClockTime = 2 s

Iteration: 80

creating matrix for the layer 1
GAMG:  Solving for Dx, Initial residual = 2.1682e-05, Final residual = 2.1203e-07, No Iterations 1
GAMG:  Solving for Dy, Initial residual = 1.67967e-06, Final residual = 5.82762e-08, No Iterations 1
GAMG:  Solving for Dz, Initial residual = 9.20156e-07, Final residual = 9.20156e-07, No Iterations 0
ExecutionTime = 0.78 s  ClockTime = 2 s

Iteration: 81

creating matrix for the layer 1
GAMG:  Solving for Dx, Initial residual = 1.96371e-05, Final residual = 1.91685e-07, No Iterations 1
GAMG:  Solving for Dy, Initial residual = 1.3812e-06, Final residual = 4.65948e-08, No Iterations 1
GAMG:  Solving for Dz, Initial residual = 1.21595e-06, Final residual = 3.05602e-08, No Iterations 1
ExecutionTime = 0.79 s  ClockTime = 2 s

Iteration: 82

creating matrix for the layer 1
GAMG:  Solving for Dx, Initial residual = 1.82539e-05, Final residual = 1.81062e-07, No Iterations 1
GAMG:  Solving for Dy, Initial residual = 1.85025e-06, Final residual = 6.58421e-08, No Iterations 1
GAMG:  Solving for Dz, Initial residual = 4.48413e-07, Final residual = 4.48413e-07, No Iterations 0
ExecutionTime = 0.8 s  ClockTime = 2 s

Iteration: 83

creating matrix for the layer 1
GAMG:  Solving for Dx, Initial residual = 1.64915e-05, Final residual = 1.60857e-07, No Iterations 1
GAMG:  Solving for Dy, Initial residual = 1.20192e-06, Final residual = 4.20729e-08, No Iterations 1
GAMG:  Solving for Dz, Initial residual = 7.23627e-07, Final residual = 7.23627e-07, No Iterations 0
ExecutionTime = 0.81 s  ClockTime = 2 s

Iteration: 84

creating matrix for the layer 1
GAMG:  Solving for Dx, Initial residual = 1.49307e-05, Final residual = 1.45469e-07, No Iterations 1
GAMG:  Solving for Dy, Initial residual = 9.84973e-07, Final residual = 9.84973e-07, No Iterations 0
GAMG:  Solving for Dz, Initial residual = 9.37181e-07, Final residual = 9.37181e-07, No Iterations 0
ExecutionTime = 0.82 s  ClockTime = 2 s

Iteration: 85

creating matrix for the layer 1
GAMG:  Solving for Dx, Initial residual = 1.35125e-05, Final residual = 1.30805e-07, No Iterations 1
GAMG:  Solving for Dy, Initial residual = 1.10617e-06, Final residual = 4.0922e-08, No Iterations 1
GAMG:  Solving for Dz, Initial residual = 1.0986e-06, Final residual = 2.64499e-08, No Iterations 1
ExecutionTime = 0.82 s  ClockTime = 2 s

Iteration: 86

creating matrix for the layer 1
GAMG:  Solving for Dx, Initial residual = 1.27466e-05, Final residual = 1.26594e-07, No Iterations 1
GAMG:  Solving for Dy, Initial residual = 1.50062e-06, Final residual = 5.41451e-08, No Iterations 1
GAMG:  Solving for Dz, Initial residual = 3.36433e-07, Final residual = 3.36433e-07, No Iterations 0
ExecutionTime = 0.83 s  ClockTime = 2 s

Iteration: 87

creating matrix for the layer 1
GAMG:  Solving for Dx, Initial residual = 1.14735e-05, Final residual = 1.11632e-07, No Iterations 1
GAMG:  Solving for Dy, Initial residual = 9.14209e-07, Final residual = 9.14209e-07, No Iterations 0
GAMG:  Solving for Dz, Initial residual = 5.27511e-07, Final residual = 5.27511e-07, No Iterations 0
ExecutionTime = 0.84 s  ClockTime = 2 s

Iteration: 88

creating matrix for the layer 1
GAMG:  Solving for Dx, Initial residual = 1.03579e-05, Final residual = 1.00284e-07, No Iterations 1
GAMG:  Solving for Dy, Initial residual = 9.89188e-07, Final residual = 9.89188e-07, No Iterations 0
GAMG:  Solving for Dz, Initial residual = 6.44151e-07, Final residual = 6.44151e-07, No Iterations 0
ExecutionTime = 0.85 s  ClockTime = 2 s

Iteration: 89

creating matrix for the layer 1
GAMG:  Solving for Dx, Initial residual = 9.37435e-06, Final residual = 9.02279e-08, No Iterations 1
GAMG:  Solving for Dy, Initial residual = 1.06033e-06, Final residual = 4.04839e-08, No Iterations 1
GAMG:  Solving for Dz, Initial residual = 7.46339e-07, Final residual = 7.46339e-07, No Iterations 0
ExecutionTime = 0.85 s  ClockTime = 2 s


SIMPLE solution converged in 89 iterations


LAYER NUMBER: 2
Calculating polymeriation field

Calculating Lame's coefficients

Calculating explicit part of div(sigma) divSigmaExp


SIMPLE: convergence criteria
    field D	 tolerance 1e-05


Calculating displacement field

Iteration: 90

creating matrix for the layer 2
GAMG:  Solving for Dx, Initial residual = 0.0742897, Final residual = 0.000895697, No Iterations 1
GAMG:  Solving for Dy, Initial residual = 0.089444, Final residual = 0.00115827, No Iterations 1
GAMG:  Solving for Dz, Initial residual = 0.0147942, Final residual = 0.000406117, No Iterations 1
ExecutionTime = 1.33 s  ClockTime = 4 s

Iteration: 91

creating matrix for the layer 2
GAMG:  Solving for Dx, Initial residual = 0.0490122, Final residual = 0.000591654, No Iterations 1
GAMG:  Solving for Dy, Initial residual = 0.0801618, Final residual = 0.00134484, No Iterations 1
GAMG:  Solving for Dz, Initial residual = 0.0205443, Final residual = 0.000500327, No Iterations 1
ExecutionTime = 1.33 s  ClockTime = 4 s

Iteration: 92

creating matrix for the layer 2
GAMG:  Solving for Dx, Initial residual = 0.0162175, Final residual = 0.000200068, No Iterations 1
GAMG:  Solving for Dy, Initial residual = 0.0288216, Final residual = 0.00067461, No Iterations 1
GAMG:  Solving for Dz, Initial residual = 0.00239763, Final residual = 8.18785e-05, No Iterations 1
ExecutionTime = 1.34 s  ClockTime = 4 s

Iteration: 93

creating matrix for the layer 2
GAMG:  Solving for Dx, Initial residual = 0.00612034, Final residual = 8.93639e-05, No Iterations 1
GAMG:  Solving for Dy, Initial residual = 0.00738125, Final residual = 0.00013163, No Iterations 1
GAMG:  Solving for Dz, Initial residual = 0.00134352, Final residual = 5.43007e-05, No Iterations 1
ExecutionTime = 1.35 s  ClockTime = 4 s

Iteration: 94

creating matrix for the layer 2
GAMG:  Solving for Dx, Initial residual = 0.0030263, Final residual = 5.85628e-05, No Iterations 1
GAMG:  Solving for Dy, Initial residual = 0.00531882, Final residual = 0.000156093, No Iterations 1
GAMG:  Solving for Dz, Initial residual = 0.000524236, Final residual = 2.27989e-05, No Iterations 1
ExecutionTime = 1.36 s  ClockTime = 4 s

Iteration: 95

creating matrix for the layer 2
GAMG:  Solving for Dx, Initial residual = 0.00184073, Final residual = 4.42704e-05, No Iterations 1
GAMG:  Solving for Dy, Initial residual = 0.00188847, Final residual = 5.68528e-05, No Iterations 1
GAMG:  Solving for Dz, Initial residual = 0.00034495, Final residual = 1.49569e-05, No Iterations 1
ExecutionTime = 1.37 s  ClockTime = 4 s

Iteration: 96

creating matrix for the layer 2
GAMG:  Solving for Dx, Initial residual = 0.00146082, Final residual = 5.00246e-05, No Iterations 1
GAMG:  Solving for Dy, Initial residual = 0.00133716, Final residual = 4.83652e-05, No Iterations 1
GAMG:  Solving for Dz, Initial residual = 0.00019092, Final residual = 9.04971e-06, No Iterations 1
ExecutionTime = 1.39 s  ClockTime = 4 s

Iteration: 97

creating matrix for the layer 2
GAMG:  Solving for Dx, Initial residual = 0.000996994, Final residual = 3.9553e-05, No Iterations 1
GAMG:  Solving for Dy, Initial residual = 0.00067956, Final residual = 3.00342e-05, No Iterations 1
GAMG:  Solving for Dz, Initial residual = 0.00014584, Final residual = 6.82614e-06, No Iterations 1
ExecutionTime = 1.4 s  ClockTime = 4 s

Iteration: 98

creating matrix for the layer 2
GAMG:  Solving for Dx, Initial residual = 0.00083115, Final residual = 3.70977e-05, No Iterations 1
GAMG:  Solving for Dy, Initial residual = 0.000497175, Final residual = 2.58976e-05, No Iterations 1
GAMG:  Solving for Dz, Initial residual = 0.000107483, Final residual = 4.92575e-06, No Iterations 1
ExecutionTime = 1.41 s  ClockTime = 4 s

Iteration: 99

creating matrix for the layer 2
GAMG:  Solving for Dx, Initial residual = 0.000619123, Final residual = 2.89554e-05, No Iterations 1
GAMG:  Solving for Dy, Initial residual = 0.000340017, Final residual = 1.97099e-05, No Iterations 1
GAMG:  Solving for Dz, Initial residual = 9.01679e-05, Final residual = 4.26038e-06, No Iterations 1
ExecutionTime = 1.41 s  ClockTime = 4 s

Iteration: 100

creating matrix for the layer 2
GAMG:  Solving for Dx, Initial residual = 0.000526779, Final residual = 2.48806e-05, No Iterations 1
GAMG:  Solving for Dy, Initial residual = 0.000286828, Final residual = 1.70833e-05, No Iterations 1
GAMG:  Solving for Dz, Initial residual = 7.44026e-05, Final residual = 3.38169e-06, No Iterations 1
ExecutionTime = 1.42 s  ClockTime = 4 s

Iteration: 101

creating matrix for the layer 2
GAMG:  Solving for Dx, Initial residual = 0.000424531, Final residual = 1.96928e-05, No Iterations 1
GAMG:  Solving for Dy, Initial residual = 0.000233387, Final residual = 1.39622e-05, No Iterations 1
GAMG:  Solving for Dz, Initial residual = 6.47268e-05, Final residual = 3.0419e-06, No Iterations 1
ExecutionTime = 1.43 s  ClockTime = 4 s

Iteration: 102

creating matrix for the layer 2
GAMG:  Solving for Dx, Initial residual = 0.000366351, Final residual = 1.65627e-05, No Iterations 1
GAMG:  Solving for Dy, Initial residual = 0.000206343, Final residual = 1.22859e-05, No Iterations 1
GAMG:  Solving for Dz, Initial residual = 5.52817e-05, Final residual = 2.55632e-06, No Iterations 1
ExecutionTime = 1.43 s  ClockTime = 4 s

Iteration: 103

creating matrix for the layer 2
GAMG:  Solving for Dx, Initial residual = 0.000313883, Final residual = 1.40391e-05, No Iterations 1
GAMG:  Solving for Dy, Initial residual = 0.000175084, Final residual = 1.04175e-05, No Iterations 1
GAMG:  Solving for Dz, Initial residual = 4.87664e-05, Final residual = 2.28686e-06, No Iterations 1
ExecutionTime = 1.44 s  ClockTime = 4 s

Iteration: 104

creating matrix for the layer 2
GAMG:  Solving for Dx, Initial residual = 0.000282947, Final residual = 1.21647e-05, No Iterations 1
GAMG:  Solving for Dy, Initial residual = 0.000156038, Final residual = 9.1977e-06, No Iterations 1
GAMG:  Solving for Dz, Initial residual = 4.22748e-05, Final residual = 1.98013e-06, No Iterations 1
ExecutionTime = 1.45 s  ClockTime = 4 s

Iteration: 105

creating matrix for the layer 2
GAMG:  Solving for Dx, Initial residual = 0.00025672, Final residual = 1.05336e-05, No Iterations 1
GAMG:  Solving for Dy, Initial residual = 0.000135503, Final residual = 7.94969e-06, No Iterations 1
GAMG:  Solving for Dz, Initial residual = 3.73991e-05, Final residual = 1.76118e-06, No Iterations 1
ExecutionTime = 1.46 s  ClockTime = 4 s

Iteration: 106

creating matrix for the layer 2
GAMG:  Solving for Dx, Initial residual = 0.000235965, Final residual = 9.12756e-06, No Iterations 1
GAMG:  Solving for Dy, Initial residual = 0.000119996, Final residual = 7.00426e-06, No Iterations 1
GAMG:  Solving for Dz, Initial residual = 3.26915e-05, Final residual = 1.54465e-06, No Iterations 1
ExecutionTime = 1.47 s  ClockTime = 4 s

Iteration: 107

creating matrix for the layer 2
GAMG:  Solving for Dx, Initial residual = 0.000215204, Final residual = 7.93569e-06, No Iterations 1
GAMG:  Solving for Dy, Initial residual = 0.000105066, Final residual = 6.1156e-06, No Iterations 1
GAMG:  Solving for Dz, Initial residual = 2.89036e-05, Final residual = 1.37052e-06, No Iterations 1
ExecutionTime = 1.47 s  ClockTime = 4 s

Iteration: 108

creating matrix for the layer 2
GAMG:  Solving for Dx, Initial residual = 0.000196896, Final residual = 6.91195e-06, No Iterations 1
GAMG:  Solving for Dy, Initial residual = 9.27336e-05, Final residual = 5.39135e-06, No Iterations 1
GAMG:  Solving for Dz, Initial residual = 2.53937e-05, Final residual = 1.20911e-06, No Iterations 1
ExecutionTime = 1.48 s  ClockTime = 4 s

Iteration: 109

creating matrix for the layer 2
GAMG:  Solving for Dx, Initial residual = 0.000179597, Final residual = 6.04118e-06, No Iterations 1
GAMG:  Solving for Dy, Initial residual = 8.14762e-05, Final residual = 4.73697e-06, No Iterations 1
GAMG:  Solving for Dz, Initial residual = 2.24283e-05, Final residual = 1.07212e-06, No Iterations 1
ExecutionTime = 1.5 s  ClockTime = 4 s

Iteration: 110

creating matrix for the layer 2
GAMG:  Solving for Dx, Initial residual = 0.000164059, Final residual = 5.28571e-06, No Iterations 1
GAMG:  Solving for Dy, Initial residual = 7.18085e-05, Final residual = 4.18382e-06, No Iterations 1
GAMG:  Solving for Dz, Initial residual = 1.97549e-05, Final residual = 9.48706e-07, No Iterations 1
ExecutionTime = 1.51 s  ClockTime = 4 s

Iteration: 111

creating matrix for the layer 2
GAMG:  Solving for Dx, Initial residual = 0.000149942, Final residual = 4.63343e-06, No Iterations 1
GAMG:  Solving for Dy, Initial residual = 6.31758e-05, Final residual = 3.69214e-06, No Iterations 1
GAMG:  Solving for Dz, Initial residual = 1.74439e-05, Final residual = 8.4165e-07, No Iterations 1
ExecutionTime = 1.51 s  ClockTime = 4 s

Iteration: 112

creating matrix for the layer 2
GAMG:  Solving for Dx, Initial residual = 0.000137011, Final residual = 4.06719e-06, No Iterations 1
GAMG:  Solving for Dy, Initial residual = 5.56555e-05, Final residual = 3.2679e-06, No Iterations 1
GAMG:  Solving for Dz, Initial residual = 1.53872e-05, Final residual = 7.46259e-07, No Iterations 1
ExecutionTime = 1.52 s  ClockTime = 4 s

Iteration: 113

creating matrix for the layer 2
GAMG:  Solving for Dx, Initial residual = 0.000125122, Final residual = 3.57666e-06, No Iterations 1
GAMG:  Solving for Dy, Initial residual = 4.89835e-05, Final residual = 2.8931e-06, No Iterations 1
GAMG:  Solving for Dz, Initial residual = 1.35903e-05, Final residual = 6.6261e-07, No Iterations 1
ExecutionTime = 1.53 s  ClockTime = 4 s

Iteration: 114

creating matrix for the layer 2
GAMG:  Solving for Dx, Initial residual = 0.000114229, Final residual = 3.15029e-06, No Iterations 1
GAMG:  Solving for Dy, Initial residual = 4.3149e-05, Final residual = 2.56613e-06, No Iterations 1
GAMG:  Solving for Dz, Initial residual = 1.19988e-05, Final residual = 5.88422e-07, No Iterations 1
ExecutionTime = 1.54 s  ClockTime = 4 s

Iteration: 115

creating matrix for the layer 2
GAMG:  Solving for Dx, Initial residual = 0.000104254, Final residual = 2.7798e-06, No Iterations 1
GAMG:  Solving for Dy, Initial residual = 3.799e-05, Final residual = 2.27732e-06, No Iterations 1
GAMG:  Solving for Dz, Initial residual = 1.06011e-05, Final residual = 5.23109e-07, No Iterations 1
ExecutionTime = 1.55 s  ClockTime = 4 s

Iteration: 116

creating matrix for the layer 2
GAMG:  Solving for Dx, Initial residual = 9.51256e-05, Final residual = 2.45712e-06, No Iterations 1
GAMG:  Solving for Dy, Initial residual = 3.34603e-05, Final residual = 2.02345e-06, No Iterations 1
GAMG:  Solving for Dz, Initial residual = 9.36603e-06, Final residual = 4.65378e-07, No Iterations 1
ExecutionTime = 1.55 s  ClockTime = 4 s

Iteration: 117

creating matrix for the layer 2
GAMG:  Solving for Dx, Initial residual = 8.67728e-05, Final residual = 2.17562e-06, No Iterations 1
GAMG:  Solving for Dy, Initial residual = 2.94618e-05, Final residual = 1.79889e-06, No Iterations 1
GAMG:  Solving for Dz, Initial residual = 8.27958e-06, Final residual = 4.14314e-07, No Iterations 1
ExecutionTime = 1.56 s  ClockTime = 4 s

Iteration: 118

creating matrix for the layer 2
GAMG:  Solving for Dx, Initial residual = 7.91401e-05, Final residual = 1.9297e-06, No Iterations 1
GAMG:  Solving for Dy, Initial residual = 2.59459e-05, Final residual = 1.60066e-06, No Iterations 1
GAMG:  Solving for Dz, Initial residual = 7.32025e-06, Final residual = 3.69022e-07, No Iterations 1
ExecutionTime = 1.57 s  ClockTime = 4 s

Iteration: 119

creating matrix for the layer 2
GAMG:  Solving for Dx, Initial residual = 7.21663e-05, Final residual = 1.71456e-06, No Iterations 1
GAMG:  Solving for Dy, Initial residual = 2.28474e-05, Final residual = 1.42517e-06, No Iterations 1
GAMG:  Solving for Dz, Initial residual = 6.47442e-06, Final residual = 3.28898e-07, No Iterations 1
ExecutionTime = 1.57 s  ClockTime = 4 s

Iteration: 120

creating matrix for the layer 2
GAMG:  Solving for Dx, Initial residual = 6.58005e-05, Final residual = 1.52615e-06, No Iterations 1
GAMG:  Solving for Dy, Initial residual = 2.01221e-05, Final residual = 1.26975e-06, No Iterations 1
GAMG:  Solving for Dz, Initial residual = 5.72748e-06, Final residual = 2.93303e-07, No Iterations 1
ExecutionTime = 1.58 s  ClockTime = 4 s

Iteration: 121

creating matrix for the layer 2
GAMG:  Solving for Dx, Initial residual = 5.9991e-05, Final residual = 1.36074e-06, No Iterations 1
GAMG:  Solving for Dy, Initial residual = 1.77302e-05, Final residual = 1.13177e-06, No Iterations 1
GAMG:  Solving for Dz, Initial residual = 5.06827e-06, Final residual = 2.61708e-07, No Iterations 1
ExecutionTime = 1.58 s  ClockTime = 4 s

Iteration: 122

creating matrix for the layer 2
GAMG:  Solving for Dx, Initial residual = 5.46916e-05, Final residual = 1.21535e-06, No Iterations 1
GAMG:  Solving for Dy, Initial residual = 1.56321e-05, Final residual = 1.00919e-06, No Iterations 1
GAMG:  Solving for Dz, Initial residual = 4.48612e-06, Final residual = 2.33643e-07, No Iterations 1
ExecutionTime = 1.59 s  ClockTime = 4 s

Iteration: 123

creating matrix for the layer 2
GAMG:  Solving for Dx, Initial residual = 4.98585e-05, Final residual = 1.08731e-06, No Iterations 1
GAMG:  Solving for Dy, Initial residual = 1.3784e-05, Final residual = 9.00186e-07, No Iterations 1
GAMG:  Solving for Dz, Initial residual = 3.97204e-06, Final residual = 2.08711e-07, No Iterations 1
ExecutionTime = 1.61 s  ClockTime = 4 s

Iteration: 124

creating matrix for the layer 2
GAMG:  Solving for Dx, Initial residual = 4.54513e-05, Final residual = 9.744e-07, No Iterations 1
GAMG:  Solving for Dy, Initial residual = 1.21564e-05, Final residual = 8.0325e-07, No Iterations 1
GAMG:  Solving for Dz, Initial residual = 3.51776e-06, Final residual = 1.86558e-07, No Iterations 1
ExecutionTime = 1.61 s  ClockTime = 4 s

Iteration: 125

creating matrix for the layer 2
GAMG:  Solving for Dx, Initial residual = 4.14331e-05, Final residual = 8.74657e-07, No Iterations 1
GAMG:  Solving for Dy, Initial residual = 1.07224e-05, Final residual = 7.17081e-07, No Iterations 1
GAMG:  Solving for Dz, Initial residual = 3.11632e-06, Final residual = 1.66855e-07, No Iterations 1
ExecutionTime = 1.62 s  ClockTime = 4 s

Iteration: 126

creating matrix for the layer 2
GAMG:  Solving for Dx, Initial residual = 3.77702e-05, Final residual = 7.86374e-07, No Iterations 1
GAMG:  Solving for Dy, Initial residual = 9.45961e-06, Final residual = 6.40682e-07, No Iterations 1
GAMG:  Solving for Dz, Initial residual = 2.76143e-06, Final residual = 1.49319e-07, No Iterations 1
ExecutionTime = 1.63 s  ClockTime = 4 s

Iteration: 127

creating matrix for the layer 2
GAMG:  Solving for Dx, Initial residual = 3.44314e-05, Final residual = 7.08181e-07, No Iterations 1
GAMG:  Solving for Dy, Initial residual = 8.34696e-06, Final residual = 5.72537e-07, No Iterations 1
GAMG:  Solving for Dz, Initial residual = 2.4477e-06, Final residual = 1.33709e-07, No Iterations 1
ExecutionTime = 1.63 s  ClockTime = 4 s

Iteration: 128

creating matrix for the layer 2
GAMG:  Solving for Dx, Initial residual = 3.13882e-05, Final residual = 6.3869e-07, No Iterations 1
GAMG:  Solving for Dy, Initial residual = 7.36641e-06, Final residual = 5.11761e-07, No Iterations 1
GAMG:  Solving for Dz, Initial residual = 2.17024e-06, Final residual = 1.19808e-07, No Iterations 1
ExecutionTime = 1.64 s  ClockTime = 4 s

Iteration: 129

creating matrix for the layer 2
GAMG:  Solving for Dx, Initial residual = 2.86144e-05, Final residual = 5.76862e-07, No Iterations 1
GAMG:  Solving for Dy, Initial residual = 6.50236e-06, Final residual = 4.57577e-07, No Iterations 1
GAMG:  Solving for Dz, Initial residual = 1.92479e-06, Final residual = 1.07423e-07, No Iterations 1
ExecutionTime = 1.65 s  ClockTime = 4 s

Iteration: 130

creating matrix for the layer 2
GAMG:  Solving for Dx, Initial residual = 2.60863e-05, Final residual = 5.21758e-07, No Iterations 1
GAMG:  Solving for Dy, Initial residual = 5.74088e-06, Final residual = 4.09174e-07, No Iterations 1
GAMG:  Solving for Dz, Initial residual = 1.70763e-06, Final residual = 9.63963e-08, No Iterations 1
ExecutionTime = 1.65 s  ClockTime = 4 s

Iteration: 131

creating matrix for the layer 2
GAMG:  Solving for Dx, Initial residual = 2.37819e-05, Final residual = 4.72564e-07, No Iterations 1
GAMG:  Solving for Dy, Initial residual = 5.06975e-06, Final residual = 3.65917e-07, No Iterations 1
GAMG:  Solving for Dz, Initial residual = 1.51547e-06, Final residual = 8.65629e-08, No Iterations 1
ExecutionTime = 1.66 s  ClockTime = 4 s

Iteration: 132

creating matrix for the layer 2
GAMG:  Solving for Dx, Initial residual = 2.16816e-05, Final residual = 4.28554e-07, No Iterations 1
GAMG:  Solving for Dy, Initial residual = 4.4783e-06, Final residual = 3.27278e-07, No Iterations 1
GAMG:  Solving for Dz, Initial residual = 1.34538e-06, Final residual = 7.77897e-08, No Iterations 1
ExecutionTime = 1.66 s  ClockTime = 4 s

Iteration: 133

creating matrix for the layer 2
GAMG:  Solving for Dx, Initial residual = 1.97672e-05, Final residual = 3.89145e-07, No Iterations 1
GAMG:  Solving for Dy, Initial residual = 3.957e-06, Final residual = 2.92813e-07, No Iterations 1
GAMG:  Solving for Dz, Initial residual = 1.19479e-06, Final residual = 6.99526e-08, No Iterations 1
ExecutionTime = 1.67 s  ClockTime = 4 s

Iteration: 134

creating matrix for the layer 2
GAMG:  Solving for Dx, Initial residual = 1.80223e-05, Final residual = 3.53805e-07, No Iterations 1
GAMG:  Solving for Dy, Initial residual = 3.49755e-06, Final residual = 2.62108e-07, No Iterations 1
GAMG:  Solving for Dz, Initial residual = 1.06292e-06, Final residual = 6.29594e-08, No Iterations 1
ExecutionTime = 1.68 s  ClockTime = 4 s

Iteration: 135

creating matrix for the layer 2
GAMG:  Solving for Dx, Initial residual = 1.64318e-05, Final residual = 3.22065e-07, No Iterations 1
GAMG:  Solving for Dy, Initial residual = 3.09249e-06, Final residual = 2.35183e-07, No Iterations 1
GAMG:  Solving for Dz, Initial residual = 9.46211e-07, Final residual = 9.46211e-07, No Iterations 0
ExecutionTime = 1.68 s  ClockTime = 4 s

Iteration: 136

creating matrix for the layer 2
GAMG:  Solving for Dx, Initial residual = 1.48226e-05, Final residual = 2.66504e-07, No Iterations 1
GAMG:  Solving for Dy, Initial residual = 2.42683e-06, Final residual = 1.76254e-07, No Iterations 1
GAMG:  Solving for Dz, Initial residual = 1.5763e-06, Final residual = 8.25056e-08, No Iterations 1
ExecutionTime = 1.69 s  ClockTime = 4 s

Iteration: 137

creating matrix for the layer 2
GAMG:  Solving for Dx, Initial residual = 1.3689e-05, Final residual = 2.66115e-07, No Iterations 1
GAMG:  Solving for Dy, Initial residual = 2.66531e-06, Final residual = 1.88388e-07, No Iterations 1
GAMG:  Solving for Dz, Initial residual = 8.53482e-07, Final residual = 8.53482e-07, No Iterations 0
ExecutionTime = 1.69 s  ClockTime = 4 s

Iteration: 138

creating matrix for the layer 2
GAMG:  Solving for Dx, Initial residual = 1.23384e-05, Final residual = 2.18628e-07, No Iterations 1
GAMG:  Solving for Dy, Initial residual = 1.88353e-06, Final residual = 1.36525e-07, No Iterations 1
GAMG:  Solving for Dz, Initial residual = 1.36325e-06, Final residual = 7.42726e-08, No Iterations 1
ExecutionTime = 1.7 s  ClockTime = 4 s

Iteration: 139

creating matrix for the layer 2
GAMG:  Solving for Dx, Initial residual = 1.1398e-05, Final residual = 2.24367e-07, No Iterations 1
GAMG:  Solving for Dy, Initial residual = 2.16769e-06, Final residual = 1.51592e-07, No Iterations 1
GAMG:  Solving for Dz, Initial residual = 7.16763e-07, Final residual = 7.16763e-07, No Iterations 0
ExecutionTime = 1.71 s  ClockTime = 4 s

Iteration: 140

creating matrix for the layer 2
GAMG:  Solving for Dx, Initial residual = 1.02684e-05, Final residual = 1.83583e-07, No Iterations 1
GAMG:  Solving for Dy, Initial residual = 1.48597e-06, Final residual = 1.09412e-07, No Iterations 1
GAMG:  Solving for Dz, Initial residual = 1.11914e-06, Final residual = 6.39986e-08, No Iterations 1
ExecutionTime = 1.71 s  ClockTime = 4 s

Iteration: 141

creating matrix for the layer 2
GAMG:  Solving for Dx, Initial residual = 9.48801e-06, Final residual = 1.91281e-07, No Iterations 1
GAMG:  Solving for Dy, Initial residual = 1.74862e-06, Final residual = 1.23916e-07, No Iterations 1
GAMG:  Solving for Dz, Initial residual = 5.87087e-07, Final residual = 5.87087e-07, No Iterations 0
ExecutionTime = 1.72 s  ClockTime = 4 s


SIMPLE solution converged in 141 iterations


LAYER NUMBER: 3
Calculating polymeriation field

Calculating Lame's coefficients

Calculating explicit part of div(sigma) divSigmaExp


SIMPLE: convergence criteria
    field D	 tolerance 1e-05


Calculating displacement field

Iteration: 142

creating matrix for the layer 3
GAMG:  Solving for Dx, Initial residual = 0.0741888, Final residual = 0.000839391, No Iterations 1
GAMG:  Solving for Dy, Initial residual = 0.0893336, Final residual = 0.0010376, No Iterations 1
GAMG:  Solving for Dz, Initial residual = 0.0231593, Final residual = 0.000609851, No Iterations 1
ExecutionTime = 2.32 s  ClockTime = 7 s

Iteration: 143

creating matrix for the layer 3
GAMG:  Solving for Dx, Initial residual = 0.0493441, Final residual = 0.000563261, No Iterations 1
GAMG:  Solving for Dy, Initial residual = 0.0797678, Final residual = 0.00129389, No Iterations 1
GAMG:  Solving for Dz, Initial residual = 0.0251648, Final residual = 0.000610022, No Iterations 1
ExecutionTime = 2.32 s  ClockTime = 7 s

Iteration: 144

creating matrix for the layer 3
GAMG:  Solving for Dx, Initial residual = 0.0163122, Final residual = 0.000182996, No Iterations 1
GAMG:  Solving for Dy, Initial residual = 0.0285686, Final residual = 0.000645649, No Iterations 1
GAMG:  Solving for Dz, Initial residual = 0.00233975, Final residual = 7.73808e-05, No Iterations 1
ExecutionTime = 2.33 s  ClockTime = 7 s

Iteration: 145

creating matrix for the layer 3
GAMG:  Solving for Dx, Initial residual = 0.00613015, Final residual = 7.28892e-05, No Iterations 1
GAMG:  Solving for Dy, Initial residual = 0.00732955, Final residual = 0.000111239, No Iterations 1
GAMG:  Solving for Dz, Initial residual = 0.00125277, Final residual = 4.8333e-05, No Iterations 1
ExecutionTime = 2.33 s  ClockTime = 7 s

Iteration: 146

creating matrix for the layer 3
GAMG:  Solving for Dx, Initial residual = 0.00302337, Final residual = 3.61507e-05, No Iterations 1
GAMG:  Solving for Dy, Initial residual = 0.00525213, Final residual = 0.000141604, No Iterations 1
GAMG:  Solving for Dz, Initial residual = 0.00048588, Final residual = 1.94583e-05, No Iterations 1
ExecutionTime = 2.34 s  ClockTime = 7 s

Iteration: 147

creating matrix for the layer 3
GAMG:  Solving for Dx, Initial residual = 0.00184127, Final residual = 2.16498e-05, No Iterations 1
GAMG:  Solving for Dy, Initial residual = 0.00186105, Final residual = 4.71456e-05, No Iterations 1
GAMG:  Solving for Dz, Initial residual = 0.000323717, Final residual = 1.20617e-05, No Iterations 1
ExecutionTime = 2.35 s  ClockTime = 7 s

Iteration: 148

creating matrix for the layer 3
GAMG:  Solving for Dx, Initial residual = 0.00147576, Final residual = 1.50341e-05, No Iterations 1
GAMG:  Solving for Dy, Initial residual = 0.001321, Final residual = 4.00983e-05, No Iterations 1
GAMG:  Solving for Dz, Initial residual = 0.000181746, Final residual = 7.20631e-06, No Iterations 1
ExecutionTime = 2.35 s  ClockTime = 7 s

Iteration: 149

creating matrix for the layer 3
GAMG:  Solving for Dx, Initial residual = 0.00101272, Final residual = 1.09839e-05, No Iterations 1
GAMG:  Solving for Dy, Initial residual = 0.000672711, Final residual = 2.10348e-05, No Iterations 1
GAMG:  Solving for Dz, Initial residual = 0.000139458, Final residual = 5.14196e-06, No Iterations 1
ExecutionTime = 2.36 s  ClockTime = 7 s

Iteration: 150

creating matrix for the layer 3
GAMG:  Solving for Dx, Initial residual = 0.000856704, Final residual = 8.41037e-06, No Iterations 1
GAMG:  Solving for Dy, Initial residual = 0.000499038, Final residual = 1.79947e-05, No Iterations 1
GAMG:  Solving for Dz, Initial residual = 0.000103831, Final residual = 3.83047e-06, No Iterations 1
ExecutionTime = 2.37 s  ClockTime = 7 s

Iteration: 151

creating matrix for the layer 3
GAMG:  Solving for Dx, Initial residual = 0.000644329, Final residual = 6.52791e-06, No Iterations 1
GAMG:  Solving for Dy, Initial residual = 0.000347174, Final residual = 1.28392e-05, No Iterations 1
GAMG:  Solving for Dz, Initial residual = 8.7562e-05, Final residual = 3.15781e-06, No Iterations 1
ExecutionTime = 2.38 s  ClockTime = 7 s

Iteration: 152

creating matrix for the layer 3
GAMG:  Solving for Dx, Initial residual = 0.000550852, Final residual = 5.45109e-06, No Iterations 1
GAMG:  Solving for Dy, Initial residual = 0.000300599, Final residual = 1.16568e-05, No Iterations 1
GAMG:  Solving for Dz, Initial residual = 7.26583e-05, Final residual = 2.60343e-06, No Iterations 1
ExecutionTime = 2.38 s  ClockTime = 7 s

Iteration: 153

creating matrix for the layer 3
GAMG:  Solving for Dx, Initial residual = 0.000445176, Final residual = 4.51573e-06, No Iterations 1
GAMG:  Solving for Dy, Initial residual = 0.00024794, Final residual = 9.51171e-06, No Iterations 1
GAMG:  Solving for Dz, Initial residual = 6.34546e-05, Final residual = 2.25997e-06, No Iterations 1
ExecutionTime = 2.4 s  ClockTime = 7 s

Iteration: 154

creating matrix for the layer 3
GAMG:  Solving for Dx, Initial residual = 0.00038427, Final residual = 3.9805e-06, No Iterations 1
GAMG:  Solving for Dy, Initial residual = 0.000221898, Final residual = 8.52718e-06, No Iterations 1
GAMG:  Solving for Dz, Initial residual = 5.44265e-05, Final residual = 1.94571e-06, No Iterations 1
ExecutionTime = 2.41 s  ClockTime = 7 s

Iteration: 155

creating matrix for the layer 3
GAMG:  Solving for Dx, Initial residual = 0.000327009, Final residual = 3.4329e-06, No Iterations 1
GAMG:  Solving for Dy, Initial residual = 0.000190894, Final residual = 7.27133e-06, No Iterations 1
GAMG:  Solving for Dz, Initial residual = 4.81303e-05, Final residual = 1.71401e-06, No Iterations 1
ExecutionTime = 2.41 s  ClockTime = 7 s

Iteration: 156

creating matrix for the layer 3
GAMG:  Solving for Dx, Initial residual = 0.000291717, Final residual = 3.1223e-06, No Iterations 1
GAMG:  Solving for Dy, Initial residual = 0.000170587, Final residual = 6.44466e-06, No Iterations 1
GAMG:  Solving for Dz, Initial residual = 4.18634e-05, Final residual = 1.49831e-06, No Iterations 1
ExecutionTime = 2.42 s  ClockTime = 7 s

Iteration: 157

creating matrix for the layer 3
GAMG:  Solving for Dx, Initial residual = 0.000265276, Final residual = 2.77153e-06, No Iterations 1
GAMG:  Solving for Dy, Initial residual = 0.000149173, Final residual = 5.62011e-06, No Iterations 1
GAMG:  Solving for Dz, Initial residual = 3.71029e-05, Final residual = 1.32069e-06, No Iterations 1
ExecutionTime = 2.43 s  ClockTime = 7 s

Iteration: 158

creating matrix for the layer 3
GAMG:  Solving for Dx, Initial residual = 0.000243264, Final residual = 2.52716e-06, No Iterations 1
GAMG:  Solving for Dy, Initial residual = 0.00013225, Final residual = 4.96278e-06, No Iterations 1
GAMG:  Solving for Dz, Initial residual = 3.25257e-05, Final residual = 1.16032e-06, No Iterations 1
ExecutionTime = 2.44 s  ClockTime = 7 s

Iteration: 159

creating matrix for the layer 3
GAMG:  Solving for Dx, Initial residual = 0.000222077, Final residual = 2.27658e-06, No Iterations 1
GAMG:  Solving for Dy, Initial residual = 0.000116312, Final residual = 4.35591e-06, No Iterations 1
GAMG:  Solving for Dz, Initial residual = 2.87895e-05, Final residual = 1.02297e-06, No Iterations 1
ExecutionTime = 2.45 s  ClockTime = 7 s

Iteration: 160

creating matrix for the layer 3
GAMG:  Solving for Dx, Initial residual = 0.000203214, Final residual = 2.07954e-06, No Iterations 1
GAMG:  Solving for Dy, Initial residual = 0.00010273, Final residual = 3.84224e-06, No Iterations 1
GAMG:  Solving for Dz, Initial residual = 2.53436e-05, Final residual = 9.00547e-07, No Iterations 1
ExecutionTime = 2.45 s  ClockTime = 7 s

Iteration: 161

creating matrix for the layer 3
GAMG:  Solving for Dx, Initial residual = 0.000185614, Final residual = 1.88775e-06, No Iterations 1
GAMG:  Solving for Dy, Initial residual = 9.05052e-05, Final residual = 3.38045e-06, No Iterations 1
GAMG:  Solving for Dz, Initial residual = 2.24057e-05, Final residual = 7.94049e-07, No Iterations 1
ExecutionTime = 2.46 s  ClockTime = 7 s

Iteration: 162

creating matrix for the layer 3
GAMG:  Solving for Dx, Initial residual = 0.000169461, Final residual = 1.72432e-06, No Iterations 1
GAMG:  Solving for Dy, Initial residual = 7.98121e-05, Final residual = 2.98037e-06, No Iterations 1
GAMG:  Solving for Dz, Initial residual = 1.97608e-05, Final residual = 6.99746e-07, No Iterations 1
ExecutionTime = 2.47 s  ClockTime = 7 s

Iteration: 163

creating matrix for the layer 3
GAMG:  Solving for Dx, Initial residual = 0.000154858, Final residual = 1.57062e-06, No Iterations 1
GAMG:  Solving for Dy, Initial residual = 7.03189e-05, Final residual = 2.62509e-06, No Iterations 1
GAMG:  Solving for Dz, Initial residual = 1.74622e-05, Final residual = 6.17144e-07, No Iterations 1
ExecutionTime = 2.47 s  ClockTime = 7 s

Iteration: 164

creating matrix for the layer 3
GAMG:  Solving for Dx, Initial residual = 0.000141515, Final residual = 1.43395e-06, No Iterations 1
GAMG:  Solving for Dy, Initial residual = 6.19615e-05, Final residual = 2.31405e-06, No Iterations 1
GAMG:  Solving for Dz, Initial residual = 1.54153e-05, Final residual = 5.44178e-07, No Iterations 1
ExecutionTime = 2.48 s  ClockTime = 7 s

Iteration: 165

creating matrix for the layer 3
GAMG:  Solving for Dx, Initial residual = 0.000129269, Final residual = 1.30756e-06, No Iterations 1
GAMG:  Solving for Dy, Initial residual = 5.45802e-05, Final residual = 2.03931e-06, No Iterations 1
GAMG:  Solving for Dz, Initial residual = 1.36209e-05, Final residual = 4.80056e-07, No Iterations 1
ExecutionTime = 2.48 s  ClockTime = 7 s

Iteration: 166

creating matrix for the layer 3
GAMG:  Solving for Dx, Initial residual = 0.000118046, Final residual = 1.19339e-06, No Iterations 1
GAMG:  Solving for Dy, Initial residual = 4.80729e-05, Final residual = 1.79776e-06, No Iterations 1
GAMG:  Solving for Dz, Initial residual = 1.20307e-05, Final residual = 4.23484e-07, No Iterations 1
ExecutionTime = 2.49 s  ClockTime = 7 s

Iteration: 167

creating matrix for the layer 3
GAMG:  Solving for Dx, Initial residual = 0.000107769, Final residual = 1.08881e-06, No Iterations 1
GAMG:  Solving for Dy, Initial residual = 4.2333e-05, Final residual = 1.58475e-06, No Iterations 1
GAMG:  Solving for Dz, Initial residual = 1.06311e-05, Final residual = 3.73686e-07, No Iterations 1
ExecutionTime = 2.51 s  ClockTime = 7 s

Iteration: 168

creating matrix for the layer 3
GAMG:  Solving for Dx, Initial residual = 9.8353e-05, Final residual = 9.93984e-07, No Iterations 1
GAMG:  Solving for Dy, Initial residual = 3.72747e-05, Final residual = 1.39721e-06, No Iterations 1
GAMG:  Solving for Dz, Initial residual = 9.39325e-06, Final residual = 3.29763e-07, No Iterations 1
ExecutionTime = 2.52 s  ClockTime = 7 s

Iteration: 169

creating matrix for the layer 3
GAMG:  Solving for Dx, Initial residual = 8.9728e-05, Final residual = 9.07429e-07, No Iterations 1
GAMG:  Solving for Dy, Initial residual = 3.28172e-05, Final residual = 1.23186e-06, No Iterations 1
GAMG:  Solving for Dz, Initial residual = 8.30181e-06, Final residual = 2.91065e-07, No Iterations 1
ExecutionTime = 2.52 s  ClockTime = 7 s

Iteration: 170

creating matrix for the layer 3
GAMG:  Solving for Dx, Initial residual = 8.18391e-05, Final residual = 8.28732e-07, No Iterations 1
GAMG:  Solving for Dy, Initial residual = 2.8891e-05, Final residual = 1.0862e-06, No Iterations 1
GAMG:  Solving for Dz, Initial residual = 7.33728e-06, Final residual = 2.5694e-07, No Iterations 1
ExecutionTime = 2.53 s  ClockTime = 7 s

Iteration: 171

creating matrix for the layer 3
GAMG:  Solving for Dx, Initial residual = 7.46298e-05, Final residual = 7.56926e-07, No Iterations 1
GAMG:  Solving for Dy, Initial residual = 2.54322e-05, Final residual = 9.57791e-07, No Iterations 1
GAMG:  Solving for Dz, Initial residual = 6.48603e-06, Final residual = 2.2686e-07, No Iterations 1
ExecutionTime = 2.53 s  ClockTime = 7 s

Iteration: 172

creating matrix for the layer 3
GAMG:  Solving for Dx, Initial residual = 6.80494e-05, Final residual = 6.91476e-07, No Iterations 1
GAMG:  Solving for Dy, Initial residual = 2.2386e-05, Final residual = 8.44633e-07, No Iterations 1
GAMG:  Solving for Dz, Initial residual = 5.73396e-06, Final residual = 2.00333e-07, No Iterations 1
ExecutionTime = 2.54 s  ClockTime = 7 s

Iteration: 173

creating matrix for the layer 3
GAMG:  Solving for Dx, Initial residual = 6.20436e-05, Final residual = 6.31766e-07, No Iterations 1
GAMG:  Solving for Dy, Initial residual = 1.97032e-05, Final residual = 7.44887e-07, No Iterations 1
GAMG:  Solving for Dz, Initial residual = 5.06987e-06, Final residual = 1.7694e-07, No Iterations 1
ExecutionTime = 2.54 s  ClockTime = 7 s

Iteration: 174

creating matrix for the layer 3
GAMG:  Solving for Dx, Initial residual = 5.65637e-05, Final residual = 5.77294e-07, No Iterations 1
GAMG:  Solving for Dy, Initial residual = 1.7341e-05, Final residual = 6.56969e-07, No Iterations 1
GAMG:  Solving for Dz, Initial residual = 4.48315e-06, Final residual = 1.56304e-07, No Iterations 1
ExecutionTime = 2.55 s  ClockTime = 7 s

Iteration: 175

creating matrix for the layer 3
GAMG:  Solving for Dx, Initial residual = 5.15651e-05, Final residual = 5.27539e-07, No Iterations 1
GAMG:  Solving for Dy, Initial residual = 1.52613e-05, Final residual = 5.79468e-07, No Iterations 1
GAMG:  Solving for Dz, Initial residual = 3.96487e-06, Final residual = 1.381e-07, No Iterations 1
ExecutionTime = 2.56 s  ClockTime = 7 s

Iteration: 176

creating matrix for the layer 3
GAMG:  Solving for Dx, Initial residual = 4.7007e-05, Final residual = 4.82132e-07, No Iterations 1
GAMG:  Solving for Dy, Initial residual = 1.34307e-05, Final residual = 5.11158e-07, No Iterations 1
GAMG:  Solving for Dz, Initial residual = 3.50693e-06, Final residual = 1.2204e-07, No Iterations 1
ExecutionTime = 2.57 s  ClockTime = 7 s

Iteration: 177

creating matrix for the layer 3
GAMG:  Solving for Dx, Initial residual = 4.2851e-05, Final residual = 4.40674e-07, No Iterations 1
GAMG:  Solving for Dy, Initial residual = 1.18191e-05, Final residual = 4.50933e-07, No Iterations 1
GAMG:  Solving for Dz, Initial residual = 3.10231e-06, Final residual = 1.0787e-07, No Iterations 1
ExecutionTime = 2.57 s  ClockTime = 7 s

Iteration: 178

creating matrix for the layer 3
GAMG:  Solving for Dx, Initial residual = 3.90624e-05, Final residual = 4.02832e-07, No Iterations 1
GAMG:  Solving for Dy, Initial residual = 1.04014e-05, Final residual = 3.97853e-07, No Iterations 1
GAMG:  Solving for Dz, Initial residual = 2.74474e-06, Final residual = 9.53656e-08, No Iterations 1
ExecutionTime = 2.58 s  ClockTime = 7 s

Iteration: 179

creating matrix for the layer 3
GAMG:  Solving for Dx, Initial residual = 3.56089e-05, Final residual = 3.68282e-07, No Iterations 1
GAMG:  Solving for Dy, Initial residual = 9.15981e-06, Final residual = 3.51113e-07, No Iterations 1
GAMG:  Solving for Dz, Initial residual = 2.42873e-06, Final residual = 8.43302e-08, No Iterations 1
ExecutionTime = 2.59 s  ClockTime = 7 s

Iteration: 180

creating matrix for the layer 3
GAMG:  Solving for Dx, Initial residual = 3.24612e-05, Final residual = 3.36813e-07, No Iterations 1
GAMG:  Solving for Dy, Initial residual = 8.06786e-06, Final residual = 3.09911e-07, No Iterations 1
GAMG:  Solving for Dz, Initial residual = 2.1494e-06, Final residual = 7.45926e-08, No Iterations 1
ExecutionTime = 2.59 s  ClockTime = 7 s

Iteration: 181

creating matrix for the layer 3
GAMG:  Solving for Dx, Initial residual = 2.95923e-05, Final residual = 3.08092e-07, No Iterations 1
GAMG:  Solving for Dy, Initial residual = 7.10608e-06, Final residual = 2.73617e-07, No Iterations 1
GAMG:  Solving for Dz, Initial residual = 1.90249e-06, Final residual = 6.59962e-08, No Iterations 1
ExecutionTime = 2.61 s  ClockTime = 7 s

Iteration: 182

creating matrix for the layer 3
GAMG:  Solving for Dx, Initial residual = 2.69775e-05, Final residual = 2.81926e-07, No Iterations 1
GAMG:  Solving for Dy, Initial residual = 6.25894e-06, Final residual = 2.41601e-07, No Iterations 1
GAMG:  Solving for Dz, Initial residual = 1.68419e-06, Final residual = 5.84181e-08, No Iterations 1
ExecutionTime = 2.62 s  ClockTime = 7 s

Iteration: 183

creating matrix for the layer 3
GAMG:  Solving for Dx, Initial residual = 2.45945e-05, Final residual = 2.58016e-07, No Iterations 1
GAMG:  Solving for Dy, Initial residual = 5.51304e-06, Final residual = 2.13346e-07, No Iterations 1
GAMG:  Solving for Dz, Initial residual = 1.49118e-06, Final residual = 5.17285e-08, No Iterations 1
ExecutionTime = 2.62 s  ClockTime = 7 s

Iteration: 184

creating matrix for the layer 3
GAMG:  Solving for Dx, Initial residual = 2.24226e-05, Final residual = 2.36142e-07, No Iterations 1
GAMG:  Solving for Dy, Initial residual = 4.85613e-06, Final residual = 1.88409e-07, No Iterations 1
GAMG:  Solving for Dz, Initial residual = 1.32049e-06, Final residual = 4.58188e-08, No Iterations 1
ExecutionTime = 2.63 s  ClockTime = 7 s

Iteration: 185

creating matrix for the layer 3
GAMG:  Solving for Dx, Initial residual = 2.04432e-05, Final residual = 2.16134e-07, No Iterations 1
GAMG:  Solving for Dy, Initial residual = 4.27753e-06, Final residual = 1.66399e-07, No Iterations 1
GAMG:  Solving for Dz, Initial residual = 1.16954e-06, Final residual = 4.05978e-08, No Iterations 1
ExecutionTime = 2.63 s  ClockTime = 7 s

Iteration: 186

creating matrix for the layer 3
GAMG:  Solving for Dx, Initial residual = 1.8639e-05, Final residual = 1.97824e-07, No Iterations 1
GAMG:  Solving for Dy, Initial residual = 3.76785e-06, Final residual = 1.46972e-07, No Iterations 1
GAMG:  Solving for Dz, Initial residual = 1.03602e-06, Final residual = 3.59886e-08, No Iterations 1
ExecutionTime = 2.64 s  ClockTime = 7 s

Iteration: 187

creating matrix for the layer 3
GAMG:  Solving for Dx, Initial residual = 1.69947e-05, Final residual = 1.81059e-07, No Iterations 1
GAMG:  Solving for Dy, Initial residual = 3.31895e-06, Final residual = 1.29821e-07, No Iterations 1
GAMG:  Solving for Dz, Initial residual = 9.179e-07, Final residual = 9.179e-07, No Iterations 0
ExecutionTime = 2.65 s  ClockTime = 8 s

Iteration: 188

creating matrix for the layer 3
GAMG:  Solving for Dx, Initial residual = 1.53549e-05, Final residual = 1.62441e-07, No Iterations 1
GAMG:  Solving for Dy, Initial residual = 2.70562e-06, Final residual = 1.03117e-07, No Iterations 1
GAMG:  Solving for Dz, Initial residual = 1.54327e-06, Final residual = 5.0412e-08, No Iterations 1
ExecutionTime = 2.65 s  ClockTime = 8 s

Iteration: 189

creating matrix for the layer 3
GAMG:  Solving for Dx, Initial residual = 1.41626e-05, Final residual = 1.52881e-07, No Iterations 1
GAMG:  Solving for Dy, Initial residual = 2.84702e-06, Final residual = 1.06585e-07, No Iterations 1
GAMG:  Solving for Dz, Initial residual = 8.23877e-07, Final residual = 8.23877e-07, No Iterations 0
ExecutionTime = 2.66 s  ClockTime = 8 s

Iteration: 190

creating matrix for the layer 3
GAMG:  Solving for Dx, Initial residual = 1.27849e-05, Final residual = 1.35857e-07, No Iterations 1
GAMG:  Solving for Dy, Initial residual = 2.09816e-06, Final residual = 8.13491e-08, No Iterations 1
GAMG:  Solving for Dz, Initial residual = 1.32882e-06, Final residual = 4.41922e-08, No Iterations 1
ExecutionTime = 2.66 s  ClockTime = 8 s

Iteration: 191

creating matrix for the layer 3
GAMG:  Solving for Dx, Initial residual = 1.179e-05, Final residual = 1.28392e-07, No Iterations 1
GAMG:  Solving for Dy, Initial residual = 2.29846e-06, Final residual = 8.56497e-08, No Iterations 1
GAMG:  Solving for Dz, Initial residual = 6.81492e-07, Final residual = 6.81492e-07, No Iterations 0
ExecutionTime = 2.67 s  ClockTime = 8 s

Iteration: 192

creating matrix for the layer 3
GAMG:  Solving for Dx, Initial residual = 1.06407e-05, Final residual = 1.13868e-07, No Iterations 1
GAMG:  Solving for Dy, Initial residual = 1.63972e-06, Final residual = 6.41295e-08, No Iterations 1
GAMG:  Solving for Dz, Initial residual = 1.08155e-06, Final residual = 3.63156e-08, No Iterations 1
ExecutionTime = 2.68 s  ClockTime = 8 s

Iteration: 193

creating matrix for the layer 3
GAMG:  Solving for Dx, Initial residual = 9.81106e-06, Final residual = 1.07575e-07, No Iterations 1
GAMG:  Solving for Dy, Initial residual = 1.83055e-06, Final residual = 6.87735e-08, No Iterations 1
GAMG:  Solving for Dz, Initial residual = 5.49709e-07, Final residual = 5.49709e-07, No Iterations 0
ExecutionTime = 2.68 s  ClockTime = 8 s


SIMPLE solution converged in 193 iterations


LAYER NUMBER: 4
Calculating polymeriation field

Calculating Lame's coefficients

Calculating explicit part of div(sigma) divSigmaExp


SIMPLE: convergence criteria
    field D	 tolerance 1e-05


Calculating displacement field

Iteration: 194

creating matrix for the layer 4
GAMG:  Solving for Dx, Initial residual = 0.0740437, Final residual = 0.00083568, No Iterations 1
GAMG:  Solving for Dy, Initial residual = 0.0892741, Final residual = 0.00103834, No Iterations 1
GAMG:  Solving for Dz, Initial residual = 0.0212823, Final residual = 0.000559086, No Iterations 1
ExecutionTime = 3.31 s  ClockTime = 10 s

Iteration: 195

creating matrix for the layer 4
GAMG:  Solving for Dx, Initial residual = 0.0492711, Final residual = 0.000564062, No Iterations 1
GAMG:  Solving for Dy, Initial residual = 0.0790012, Final residual = 0.00128643, No Iterations 1
GAMG:  Solving for Dz, Initial residual = 0.0228948, Final residual = 0.000555359, No Iterations 1
ExecutionTime = 3.32 s  ClockTime = 10 s

Iteration: 196

creating matrix for the layer 4
GAMG:  Solving for Dx, Initial residual = 0.0162993, Final residual = 0.000183506, No Iterations 1
GAMG:  Solving for Dy, Initial residual = 0.0283581, Final residual = 0.000642659, No Iterations 1
GAMG:  Solving for Dz, Initial residual = 0.00217186, Final residual = 7.18047e-05, No Iterations 1
ExecutionTime = 3.33 s  ClockTime = 10 s

Iteration: 197

creating matrix for the layer 4
GAMG:  Solving for Dx, Initial residual = 0.00611905, Final residual = 7.27193e-05, No Iterations 1
GAMG:  Solving for Dy, Initial residual = 0.00731258, Final residual = 0.000111643, No Iterations 1
GAMG:  Solving for Dz, Initial residual = 0.00116967, Final residual = 4.53871e-05, No Iterations 1
ExecutionTime = 3.34 s  ClockTime = 10 s

Iteration: 198

creating matrix for the layer 4
GAMG:  Solving for Dx, Initial residual = 0.00301569, Final residual = 3.59458e-05, No Iterations 1
GAMG:  Solving for Dy, Initial residual = 0.00523787, Final residual = 0.00014235, No Iterations 1
GAMG:  Solving for Dz, Initial residual = 0.000459668, Final residual = 1.86161e-05, No Iterations 1
ExecutionTime = 3.34 s  ClockTime = 10 s

Iteration: 199

creating matrix for the layer 4
GAMG:  Solving for Dx, Initial residual = 0.00183218, Final residual = 2.07441e-05, No Iterations 1
GAMG:  Solving for Dy, Initial residual = 0.00186536, Final residual = 4.81631e-05, No Iterations 1
[...]

Iteration: 924

creating matrix for the layer 18
GAMG:  Solving for Dx, Initial residual = 0.0161839, Final residual = 0.000183598, No Iterations 1
GAMG:  Solving for Dy, Initial residual = 0.028681, Final residual = 0.000652369, No Iterations 1
GAMG:  Solving for Dz, Initial residual = 0.00208315, Final residual = 6.89722e-05, No Iterations 1
ExecutionTime = 18.53 s  ClockTime = 57 s

Iteration: 925

creating matrix for the layer 18
GAMG:  Solving for Dx, Initial residual = 0.00610406, Final residual = 7.33253e-05, No Iterations 1
GAMG:  Solving for Dy, Initial residual = 0.00742761, Final residual = 0.000115286, No Iterations 1
GAMG:  Solving for Dz, Initial residual = 0.00113121, Final residual = 4.46907e-05, No Iterations 1
ExecutionTime = 18.53 s  ClockTime = 57 s

Iteration: 926

creating matrix for the layer 18
GAMG:  Solving for Dx, Initial residual = 0.00302169, Final residual = 3.71085e-05, No Iterations 1
GAMG:  Solving for Dy, Initial residual = 0.00531074, Final residual = 0.000146971, No Iterations 1
GAMG:  Solving for Dz, Initial residual = 0.000449797, Final residual = 1.86354e-05, No Iterations 1
ExecutionTime = 18.55 s  ClockTime = 57 s

Iteration: 927

creating matrix for the layer 18
GAMG:  Solving for Dx, Initial residual = 0.00184009, Final residual = 2.03152e-05, No Iterations 1
GAMG:  Solving for Dy, Initial residual = 0.001905, Final residual = 5.14429e-05, No Iterations 1
GAMG:  Solving for Dz, Initial residual = 0.000307439, Final residual = 1.19827e-05, No Iterations 1
ExecutionTime = 18.55 s  ClockTime = 57 s

Iteration: 928

creating matrix for the layer 18
GAMG:  Solving for Dx, Initial residual = 0.00147384, Final residual = 1.4162e-05, No Iterations 1
GAMG:  Solving for Dy, Initial residual = 0.00135813, Final residual = 4.4057e-05, No Iterations 1
GAMG:  Solving for Dz, Initial residual = 0.000177732, Final residual = 7.20458e-06, No Iterations 1
ExecutionTime = 18.57 s  ClockTime = 57 s

Iteration: 929

creating matrix for the layer 18
GAMG:  Solving for Dx, Initial residual = 0.00101015, Final residual = 9.93684e-06, No Iterations 1
GAMG:  Solving for Dy, Initial residual = 0.000703924, Final residual = 2.47028e-05, No Iterations 1
GAMG:  Solving for Dz, Initial residual = 0.000138057, Final residual = 5.36182e-06, No Iterations 1
ExecutionTime = 18.58 s  ClockTime = 57 s

Iteration: 930

creating matrix for the layer 18
GAMG:  Solving for Dx, Initial residual = 0.00085512, Final residual = 7.7299e-06, No Iterations 1
GAMG:  Solving for Dy, Initial residual = 0.000529001, Final residual = 2.11222e-05, No Iterations 1
GAMG:  Solving for Dz, Initial residual = 0.000104274, Final residual = 3.9056e-06, No Iterations 1
ExecutionTime = 18.59 s  ClockTime = 57 s

Iteration: 931

creating matrix for the layer 18
GAMG:  Solving for Dx, Initial residual = 0.000643149, Final residual = 5.97927e-06, No Iterations 1
GAMG:  Solving for Dy, Initial residual = 0.000374881, Final residual = 1.51603e-05, No Iterations 1
GAMG:  Solving for Dz, Initial residual = 8.84017e-05, Final residual = 3.30154e-06, No Iterations 1
ExecutionTime = 18.6 s  ClockTime = 57 s

Iteration: 932

creating matrix for the layer 18
GAMG:  Solving for Dx, Initial residual = 0.000549772, Final residual = 5.05398e-06, No Iterations 1
GAMG:  Solving for Dy, Initial residual = 0.000326036, Final residual = 1.35709e-05, No Iterations 1
GAMG:  Solving for Dz, Initial residual = 7.37196e-05, Final residual = 2.68599e-06, No Iterations 1
ExecutionTime = 18.61 s  ClockTime = 57 s

Iteration: 933

creating matrix for the layer 18
GAMG:  Solving for Dx, Initial residual = 0.000444655, Final residual = 4.23693e-06, No Iterations 1
GAMG:  Solving for Dy, Initial residual = 0.000269545, Final residual = 1.11052e-05, No Iterations 1
GAMG:  Solving for Dz, Initial residual = 6.44583e-05, Final residual = 2.35611e-06, No Iterations 1
ExecutionTime = 18.62 s  ClockTime = 57 s

Iteration: 934

creating matrix for the layer 18
GAMG:  Solving for Dx, Initial residual = 0.000383959, Final residual = 3.75819e-06, No Iterations 1
GAMG:  Solving for Dy, Initial residual = 0.000241658, Final residual = 9.86719e-06, No Iterations 1
GAMG:  Solving for Dz, Initial residual = 5.53909e-05, Final residual = 2.02209e-06, No Iterations 1
ExecutionTime = 18.63 s  ClockTime = 57 s

Iteration: 935

creating matrix for the layer 18
GAMG:  Solving for Dx, Initial residual = 0.000327377, Final residual = 3.2792e-06, No Iterations 1
GAMG:  Solving for Dy, Initial residual = 0.000208454, Final residual = 8.39112e-06, No Iterations 1
GAMG:  Solving for Dz, Initial residual = 4.89852e-05, Final residual = 1.78015e-06, No Iterations 1
ExecutionTime = 18.64 s  ClockTime = 57 s

Iteration: 936

creating matrix for the layer 18
GAMG:  Solving for Dx, Initial residual = 0.000293761, Final residual = 3.00121e-06, No Iterations 1
GAMG:  Solving for Dy, Initial residual = 0.000186114, Final residual = 7.37626e-06, No Iterations 1
GAMG:  Solving for Dz, Initial residual = 4.26287e-05, Final residual = 1.5525e-06, No Iterations 1
ExecutionTime = 18.65 s  ClockTime = 57 s

Iteration: 937

creating matrix for the layer 18
GAMG:  Solving for Dx, Initial residual = 0.000267209, Final residual = 2.68282e-06, No Iterations 1
GAMG:  Solving for Dy, Initial residual = 0.000162923, Final residual = 6.40109e-06, No Iterations 1
GAMG:  Solving for Dz, Initial residual = 3.77729e-05, Final residual = 1.36683e-06, No Iterations 1
ExecutionTime = 18.66 s  ClockTime = 57 s

Iteration: 938

creating matrix for the layer 18
GAMG:  Solving for Dx, Initial residual = 0.000245339, Final residual = 2.46399e-06, No Iterations 1
GAMG:  Solving for Dy, Initial residual = 0.000144383, Final residual = 5.61583e-06, No Iterations 1
GAMG:  Solving for Dz, Initial residual = 3.31216e-05, Final residual = 1.19821e-06, No Iterations 1
ExecutionTime = 18.68 s  ClockTime = 57 s

Iteration: 939

creating matrix for the layer 18
GAMG:  Solving for Dx, Initial residual = 0.000223947, Final residual = 2.23295e-06, No Iterations 1
GAMG:  Solving for Dy, Initial residual = 0.000127042, Final residual = 4.90557e-06, No Iterations 1
GAMG:  Solving for Dz, Initial residual = 2.93016e-05, Final residual = 1.05473e-06, No Iterations 1
ExecutionTime = 18.69 s  ClockTime = 57 s

Iteration: 940

creating matrix for the layer 18
GAMG:  Solving for Dx, Initial residual = 0.000205068, Final residual = 2.04808e-06, No Iterations 1
GAMG:  Solving for Dy, Initial residual = 0.000112197, Final residual = 4.30402e-06, No Iterations 1
GAMG:  Solving for Dz, Initial residual = 2.57935e-05, Final residual = 9.26856e-07, No Iterations 1
ExecutionTime = 18.7 s  ClockTime = 57 s

Iteration: 941

creating matrix for the layer 18
GAMG:  Solving for Dx, Initial residual = 0.000187305, Final residual = 1.86447e-06, No Iterations 1
GAMG:  Solving for Dy, Initial residual = 9.88591e-05, Final residual = 3.7703e-06, No Iterations 1
GAMG:  Solving for Dz, Initial residual = 2.27956e-05, Final residual = 8.15989e-07, No Iterations 1
ExecutionTime = 18.71 s  ClockTime = 57 s

Iteration: 942

creating matrix for the layer 18
GAMG:  Solving for Dx, Initial residual = 0.000171131, Final residual = 1.70643e-06, No Iterations 1
GAMG:  Solving for Dy, Initial residual = 8.71749e-05, Final residual = 3.30928e-06, No Iterations 1
GAMG:  Solving for Dz, Initial residual = 2.01018e-05, Final residual = 7.17893e-07, No Iterations 1
ExecutionTime = 18.72 s  ClockTime = 57 s

Iteration: 943

creating matrix for the layer 18
GAMG:  Solving for Dx, Initial residual = 0.000156471, Final residual = 1.55606e-06, No Iterations 1
GAMG:  Solving for Dy, Initial residual = 7.68115e-05, Final residual = 2.9035e-06, No Iterations 1
GAMG:  Solving for Dz, Initial residual = 1.77588e-05, Final residual = 6.32165e-07, No Iterations 1
ExecutionTime = 18.73 s  ClockTime = 57 s

Iteration: 944

creating matrix for the layer 18
GAMG:  Solving for Dx, Initial residual = 0.000143052, Final residual = 1.42149e-06, No Iterations 1
GAMG:  Solving for Dy, Initial residual = 6.76826e-05, Final residual = 2.54981e-06, No Iterations 1
GAMG:  Solving for Dz, Initial residual = 1.56744e-05, Final residual = 5.56533e-07, No Iterations 1
ExecutionTime = 18.74 s  ClockTime = 57 s

Iteration: 945

creating matrix for the layer 18
GAMG:  Solving for Dx, Initial residual = 0.000130724, Final residual = 1.29598e-06, No Iterations 1
GAMG:  Solving for Dy, Initial residual = 5.96213e-05, Final residual = 2.23932e-06, No Iterations 1
GAMG:  Solving for Dz, Initial residual = 1.38466e-05, Final residual = 4.90182e-07, No Iterations 1
ExecutionTime = 18.75 s  ClockTime = 57 s

Iteration: 946

creating matrix for the layer 18
GAMG:  Solving for Dx, Initial residual = 0.000119415, Final residual = 1.18214e-06, No Iterations 1
GAMG:  Solving for Dy, Initial residual = 5.25146e-05, Final residual = 1.96759e-06, No Iterations 1
GAMG:  Solving for Dz, Initial residual = 1.22276e-05, Final residual = 4.31719e-07, No Iterations 1
ExecutionTime = 18.76 s  ClockTime = 57 s

Iteration: 947

creating matrix for the layer 18
GAMG:  Solving for Dx, Initial residual = 0.000109045, Final residual = 1.07725e-06, No Iterations 1
GAMG:  Solving for Dy, Initial residual = 4.62467e-05, Final residual = 1.72909e-06, No Iterations 1
GAMG:  Solving for Dz, Initial residual = 1.08026e-05, Final residual = 3.80331e-07, No Iterations 1
ExecutionTime = 18.77 s  ClockTime = 57 s

Iteration: 948

creating matrix for the layer 18
GAMG:  Solving for Dx, Initial residual = 9.95398e-05, Final residual = 9.81747e-07, No Iterations 1
GAMG:  Solving for Dy, Initial residual = 4.07229e-05, Final residual = 1.52002e-06, No Iterations 1
GAMG:  Solving for Dz, Initial residual = 9.5428e-06, Final residual = 3.35072e-07, No Iterations 1
ExecutionTime = 18.78 s  ClockTime = 57 s

Iteration: 949

creating matrix for the layer 18
GAMG:  Solving for Dx, Initial residual = 9.08309e-05, Final residual = 8.9425e-07, No Iterations 1
GAMG:  Solving for Dy, Initial residual = 3.58544e-05, Final residual = 1.33646e-06, No Iterations 1
GAMG:  Solving for Dz, Initial residual = 8.43204e-06, Final residual = 2.9525e-07, No Iterations 1
ExecutionTime = 18.79 s  ClockTime = 57 s

Iteration: 950

creating matrix for the layer 18
GAMG:  Solving for Dx, Initial residual = 8.28621e-05, Final residual = 8.14523e-07, No Iterations 1
GAMG:  Solving for Dy, Initial residual = 3.15661e-05, Final residual = 1.17536e-06, No Iterations 1
GAMG:  Solving for Dz, Initial residual = 7.45068e-06, Final residual = 2.60177e-07, No Iterations 1
ExecutionTime = 18.8 s  ClockTime = 57 s

Iteration: 951

creating matrix for the layer 18
GAMG:  Solving for Dx, Initial residual = 7.55765e-05, Final residual = 7.41694e-07, No Iterations 1
GAMG:  Solving for Dy, Initial residual = 2.77886e-05, Final residual = 1.03382e-06, No Iterations 1
GAMG:  Solving for Dz, Initial residual = 6.58469e-06, Final residual = 2.29295e-07, No Iterations 1
ExecutionTime = 18.81 s  ClockTime = 57 s

Iteration: 952

creating matrix for the layer 18
GAMG:  Solving for Dx, Initial residual = 6.89225e-05, Final residual = 6.75316e-07, No Iterations 1
GAMG:  Solving for Dy, Initial residual = 2.44615e-05, Final residual = 9.09486e-07, No Iterations 1
GAMG:  Solving for Dz, Initial residual = 5.81975e-06, Final residual = 2.02095e-07, No Iterations 1
ExecutionTime = 18.81 s  ClockTime = 57 s

Iteration: 953

creating matrix for the layer 18
GAMG:  Solving for Dx, Initial residual = 6.28484e-05, Final residual = 6.14781e-07, No Iterations 1
GAMG:  Solving for Dy, Initial residual = 2.15312e-05, Final residual = 8.00199e-07, No Iterations 1
GAMG:  Solving for Dz, Initial residual = 5.14441e-06, Final residual = 1.78134e-07, No Iterations 1
ExecutionTime = 18.82 s  ClockTime = 57 s

Iteration: 954

creating matrix for the layer 18
GAMG:  Solving for Dx, Initial residual = 5.73059e-05, Final residual = 5.59632e-07, No Iterations 1
GAMG:  Solving for Dy, Initial residual = 1.89509e-05, Final residual = 7.04148e-07, No Iterations 1
GAMG:  Solving for Dz, Initial residual = 4.54788e-06, Final residual = 1.57026e-07, No Iterations 1
ExecutionTime = 18.83 s  ClockTime = 57 s

Iteration: 955

creating matrix for the layer 18
GAMG:  Solving for Dx, Initial residual = 5.22492e-05, Final residual = 5.09377e-07, No Iterations 1
GAMG:  Solving for Dy, Initial residual = 1.66788e-05, Final residual = 6.19712e-07, No Iterations 1
GAMG:  Solving for Dz, Initial residual = 4.02106e-06, Final residual = 1.38429e-07, No Iterations 1
ExecutionTime = 18.85 s  ClockTime = 57 s

Iteration: 956

creating matrix for the layer 18
GAMG:  Solving for Dx, Initial residual = 4.76371e-05, Final residual = 4.63611e-07, No Iterations 1
GAMG:  Solving for Dy, Initial residual = 1.46783e-05, Final residual = 5.45475e-07, No Iterations 1
GAMG:  Solving for Dz, Initial residual = 3.55567e-06, Final residual = 1.22042e-07, No Iterations 1
ExecutionTime = 18.86 s  ClockTime = 57 s

Iteration: 957

creating matrix for the layer 18
GAMG:  Solving for Dx, Initial residual = 4.34311e-05, Final residual = 4.21931e-07, No Iterations 1
GAMG:  Solving for Dy, Initial residual = 1.29177e-05, Final residual = 4.8019e-07, No Iterations 1
GAMG:  Solving for Dz, Initial residual = 3.14456e-06, Final residual = 1.07603e-07, No Iterations 1
ExecutionTime = 18.87 s  ClockTime = 57 s

Iteration: 958

creating matrix for the layer 18
GAMG:  Solving for Dx, Initial residual = 3.9596e-05, Final residual = 3.83988e-07, No Iterations 1
GAMG:  Solving for Dy, Initial residual = 1.13679e-05, Final residual = 4.22789e-07, No Iterations 1
GAMG:  Solving for Dz, Initial residual = 2.78132e-06, Final residual = 9.48792e-08, No Iterations 1
ExecutionTime = 18.88 s  ClockTime = 57 s

Iteration: 959

creating matrix for the layer 18
GAMG:  Solving for Dx, Initial residual = 3.60995e-05, Final residual = 3.49446e-07, No Iterations 1
GAMG:  Solving for Dy, Initial residual = 1.0004e-05, Final residual = 3.72291e-07, No Iterations 1
GAMG:  Solving for Dz, Initial residual = 2.46036e-06, Final residual = 8.36664e-08, No Iterations 1
ExecutionTime = 18.89 s  ClockTime = 57 s

Iteration: 960

creating matrix for the layer 18
GAMG:  Solving for Dx, Initial residual = 3.29119e-05, Final residual = 3.18002e-07, No Iterations 1
GAMG:  Solving for Dy, Initial residual = 8.8075e-06, Final residual = 3.27899e-07, No Iterations 1
GAMG:  Solving for Dz, Initial residual = 2.17673e-06, Final residual = 7.37851e-08, No Iterations 1
ExecutionTime = 18.9 s  ClockTime = 57 s

Iteration: 961

creating matrix for the layer 18
GAMG:  Solving for Dx, Initial residual = 3.00061e-05, Final residual = 2.8938e-07, No Iterations 1
GAMG:  Solving for Dy, Initial residual = 7.75758e-06, Final residual = 2.88896e-07, No Iterations 1
GAMG:  Solving for Dz, Initial residual = 1.92606e-06, Final residual = 6.50767e-08, No Iterations 1
ExecutionTime = 18.91 s  ClockTime = 57 s

Iteration: 962

creating matrix for the layer 18
GAMG:  Solving for Dx, Initial residual = 2.73572e-05, Final residual = 2.6333e-07, No Iterations 1
GAMG:  Solving for Dy, Initial residual = 6.83274e-06, Final residual = 2.54611e-07, No Iterations 1
GAMG:  Solving for Dz, Initial residual = 1.70451e-06, Final residual = 5.74017e-08, No Iterations 1
ExecutionTime = 18.92 s  ClockTime = 57 s

Iteration: 963

creating matrix for the layer 18
GAMG:  Solving for Dx, Initial residual = 2.49426e-05, Final residual = 2.39635e-07, No Iterations 1
GAMG:  Solving for Dy, Initial residual = 6.01819e-06, Final residual = 2.24426e-07, No Iterations 1
GAMG:  Solving for Dz, Initial residual = 1.50866e-06, Final residual = 5.06364e-08, No Iterations 1
ExecutionTime = 18.94 s  ClockTime = 57 s

Iteration: 964

creating matrix for the layer 18
GAMG:  Solving for Dx, Initial residual = 2.27416e-05, Final residual = 2.18133e-07, No Iterations 1
GAMG:  Solving for Dy, Initial residual = 5.30089e-06, Final residual = 1.97841e-07, No Iterations 1
GAMG:  Solving for Dz, Initial residual = 1.33551e-06, Final residual = 4.46724e-08, No Iterations 1
ExecutionTime = 18.95 s  ClockTime = 57 s

Iteration: 965

creating matrix for the layer 18
GAMG:  Solving for Dx, Initial residual = 2.07352e-05, Final residual = 1.98587e-07, No Iterations 1
GAMG:  Solving for Dy, Initial residual = 4.66909e-06, Final residual = 1.74422e-07, No Iterations 1
GAMG:  Solving for Dz, Initial residual = 1.18242e-06, Final residual = 3.94201e-08, No Iterations 1
ExecutionTime = 18.95 s  ClockTime = 57 s

Iteration: 966

creating matrix for the layer 18
GAMG:  Solving for Dx, Initial residual = 1.89064e-05, Final residual = 1.8079e-07, No Iterations 1
GAMG:  Solving for Dy, Initial residual = 4.11265e-06, Final residual = 1.53792e-07, No Iterations 1
GAMG:  Solving for Dz, Initial residual = 1.04704e-06, Final residual = 3.47952e-08, No Iterations 1
ExecutionTime = 18.96 s  ClockTime = 57 s

Iteration: 967

creating matrix for the layer 18
GAMG:  Solving for Dx, Initial residual = 1.72392e-05, Final residual = 1.64585e-07, No Iterations 1
GAMG:  Solving for Dy, Initial residual = 3.62252e-06, Final residual = 1.35617e-07, No Iterations 1
GAMG:  Solving for Dz, Initial residual = 9.27305e-07, Final residual = 9.27305e-07, No Iterations 0
ExecutionTime = 18.97 s  ClockTime = 57 s

Iteration: 968

creating matrix for the layer 18
GAMG:  Solving for Dx, Initial residual = 1.55752e-05, Final residual = 1.4653e-07, No Iterations 1
GAMG:  Solving for Dy, Initial residual = 2.96088e-06, Final residual = 1.06747e-07, No Iterations 1
GAMG:  Solving for Dz, Initial residual = 1.55558e-06, Final residual = 4.95032e-08, No Iterations 1
ExecutionTime = 18.98 s  ClockTime = 57 s

Iteration: 969

creating matrix for the layer 18
GAMG:  Solving for Dx, Initial residual = 1.43682e-05, Final residual = 1.37637e-07, No Iterations 1
GAMG:  Solving for Dy, Initial residual = 3.1041e-06, Final residual = 1.11824e-07, No Iterations 1
GAMG:  Solving for Dz, Initial residual = 8.32934e-07, Final residual = 8.32934e-07, No Iterations 0
ExecutionTime = 18.98 s  ClockTime = 57 s

Iteration: 970

creating matrix for the layer 18
GAMG:  Solving for Dx, Initial residual = 1.29702e-05, Final residual = 1.21236e-07, No Iterations 1
GAMG:  Solving for Dy, Initial residual = 2.29779e-06, Final residual = 8.41438e-08, No Iterations 1
GAMG:  Solving for Dz, Initial residual = 1.34014e-06, Final residual = 4.29623e-08, No Iterations 1
ExecutionTime = 18.99 s  ClockTime = 58 s

Iteration: 971

creating matrix for the layer 18
GAMG:  Solving for Dx, Initial residual = 1.1962e-05, Final residual = 1.14522e-07, No Iterations 1
GAMG:  Solving for Dy, Initial residual = 2.50607e-06, Final residual = 8.92364e-08, No Iterations 1
GAMG:  Solving for Dz, Initial residual = 6.88827e-07, Final residual = 6.88827e-07, No Iterations 0
ExecutionTime = 19.01 s  ClockTime = 58 s

Iteration: 972

creating matrix for the layer 18
GAMG:  Solving for Dx, Initial residual = 1.07954e-05, Final residual = 1.00635e-07, No Iterations 1
GAMG:  Solving for Dy, Initial residual = 1.79651e-06, Final residual = 6.61709e-08, No Iterations 1
GAMG:  Solving for Dz, Initial residual = 1.08821e-06, Final residual = 3.48603e-08, No Iterations 1
ExecutionTime = 19.01 s  ClockTime = 58 s

Iteration: 973

creating matrix for the layer 18
GAMG:  Solving for Dx, Initial residual = 9.95434e-06, Final residual = 9.50809e-08, No Iterations 1
GAMG:  Solving for Dy, Initial residual = 1.99518e-06, Final residual = 7.05895e-08, No Iterations 1
GAMG:  Solving for Dz, Initial residual = 5.54052e-07, Final residual = 5.54052e-07, No Iterations 0
ExecutionTime = 19.02 s  ClockTime = 58 s


SIMPLE solution converged in 973 iterations

shrinkage15 = 2.43346%
shrinkage26 = 2.40841%
deltaZ(bottom) = 3.13098e-06
deltaZ1 = 3.13208e-06
deltaZ2 = 3.13098e-06
curve1 = -1.0998e-05%
curve2 = 0%
deltaX2 = -0.113961%
deltaX1 = -0.11401%
deltaY1 = 1.04261%
deltaY2 = -1.04258%
End

