/*---------------------------------------------------------------------------*\
| =========                 |                                                 |
| \\      /  F ield         | OpenFOAM: The Open Source CFD Toolbox           |
|  \\    /   O peration     | Version:  2106                                  |
|   \\  /    A nd           | Website:  www.openfoam.com                      |
|    \\/     M anipulation  |                                                 |
\*---------------------------------------------------------------------------*/
Build  : _7b82832f-20210625 OPENFOAM=2106
Arch   : "LSB;label=32;scalar=64"
Exec   : polymerSolidFoam
Date   : May 19 2022
Time   : 12:06:43
Host   : 289f6b588afd
PID    : 411
I/O    : uncollated
Case   : /home/openfoam/run/SLA/2D_SLA
nProcs : 1
trapFpe: Floating point exception trapping enabled (FOAM_SIGFPE).
fileModificationChecking : Monitoring run-time modified files using timeStampMaster (fileModificationSkew 5, maxFileModificationPolls 20)
allowSystemOperations : Allowing user-supplied system call operations

// * * * * * * * * * * * * * * * * * * * * * * * * * * * * * * * * * * * * * //
Create time

Create mesh for time = 0


SIMPLE: convergence criteria
    field D	 tolerance 1e-08

Reading polymerProperties
 -- Laser exposure = 13989.2
Reading field D

Calculating mechanical properties

NUMBER OF LAYERS: 2 [0 0 0 0 0 0 0] 2

LAYER NUMBER: 1
Calculating polymerization field

Calculating Lame's coefficients

Calculating explicit part of div(sigma) divSigmaExp


SIMPLE: convergence criteria
    field D	 tolerance 1e-08


Calculating displacement field

Iteration: 1

creating matrix for the layer 1
Data = [
1	1.125e+09
2	2.25e+09
3	2.25e+09
4	1.125e+09
1	0	-1.125e+09
2	1	-1.125e+09
3	2	-1.125e+09
];
 Matrix = sparse(Data(:,1), Data(:,2), Data(:,3));
Source = [
1	0	0	0
2	0	0	-2.25e+09
3	0	0	-2.25e+09
4	0	0	0
];
Source size = 4
GAMG:  Solving for Dx, Initial residual = 0, Final residual = 0, No Iterations 0
GAMG:  Solving for Dz, Initial residual = 1, Final residual = 0.444444, No Iterations 1
ExecutionTime = 0.03 s  ClockTime = 1 s

Iteration: 2

creating matrix for the layer 1
Data = [
1	1.125e+09
2	2.25e+09
3	2.25e+09
4	1.125e+09
1	0	-1.125e+09
2	1	-1.125e+09
3	2	-1.125e+09
];
 Matrix = sparse(Data(:,1), Data(:,2), Data(:,3));
Source = [
1	0	0	4.76837e-07
2	0	0	1.125e+09
3	0	0	1.125e+09
4	0	0	0
];
Source size = 4
GAMG:  Solving for Dx, Initial residual = 0, Final residual = 0, No Iterations 0
GAMG:  Solving for Dz, Initial residual = 0.255319, Final residual = 0.101655, No Iterations 1
ExecutionTime = 0.03 s  ClockTime = 1 s

Iteration: 3

creating matrix for the layer 1
Data = [
1	1.125e+09
2	2.25e+09
3	2.25e+09
4	1.125e+09
1	0	-1.125e+09
2	1	-1.125e+09
3	2	-1.125e+09
];
 Matrix = sparse(Data(:,1), Data(:,2), Data(:,3));
Source = [
1	0	0	-5.27344e+08
2	0	0	-1.16016e+09
3	0	0	-1.51172e+09
4	0	0	-8.78906e+08
];
Source size = 4
GAMG:  Solving for Dx, Initial residual = 0, Final residual = 0, No Iterations 0
GAMG:  Solving for Dz, Initial residual = 0.577134, Final residual = 0.243661, No Iterations 1
ExecutionTime = 0.03 s  ClockTime = 1 s

Iteration: 4

creating matrix for the layer 1
Data = [
1	1.125e+09
2	2.25e+09
3	2.25e+09
4	1.125e+09
1	0	-1.125e+09
2	1	-1.125e+09
3	2	-1.125e+09
];
 Matrix = sparse(Data(:,1), Data(:,2), Data(:,3));
Source = [
1	0	0	-2.49023e+08
2	0	0	1.21777e+09
3	0	0	1.6377e+09
4	0	0	1.70898e+08
];
Source size = 4
GAMG:  Solving for Dx, Initial residual = 0, Final residual = 0, No Iterations 0
GAMG:  Solving for Dz, Initial residual = 0.265221, Final residual = 0.116062, No Iterations 1
ExecutionTime = 0.03 s  ClockTime = 1 s

Iteration: 5

creating matrix for the layer 1
Data = [
1	1.125e+09
2	2.25e+09
3	2.25e+09
4	1.125e+09
1	0	-1.125e+09
2	1	-1.125e+09
3	2	-1.125e+09
];
 Matrix = sparse(Data(:,1), Data(:,2), Data(:,3));
Source = [
1	0	0	-3.28776e+08
2	0	0	1.31619e+08
3	0	0	-4.65169e+08
4	0	0	-9.25564e+08
];
Source size = 4
GAMG:  Solving for Dx, Initial residual = 0, Final residual = 0, No Iterations 0
GAMG:  Solving for Dz, Initial residual = 0.335956, Final residual = 0.142307, No Iterations 1
ExecutionTime = 0.03 s  ClockTime = 1 s

Iteration: 6

creating matrix for the layer 1
Data = [
1	1.125e+09
2	2.25e+09
3	2.25e+09
4	1.125e+09
1	0	-1.125e+09
2	1	-1.125e+09
3	2	-1.125e+09
];
 Matrix = sparse(Data(:,1), Data(:,2), Data(:,3));
Source = [
1	0	0	-2.15816e+08
2	0	0	1.49346e+09
3	0	0	2.21565e+09
4	0	0	5.06373e+08
];
Source size = 4
GAMG:  Solving for Dx, Initial residual = 0, Final residual = 0, No Iterations 0
GAMG:  Solving for Dz, Initial residual = 0.323627, Final residual = 0.139599, No Iterations 1
ExecutionTime = 0.03 s  ClockTime = 1 s

Iteration: 7

creating matrix for the layer 1
Data = [
1	1.125e+09
2	2.25e+09
3	2.25e+09
4	1.125e+09
1	0	-1.125e+09
2	1	-1.125e+09
3	2	-1.125e+09
];
 Matrix = sparse(Data(:,1), Data(:,2), Data(:,3));
Source = [
1	0	0	3.09728e+08
2	0	0	2.1346e+09
3	0	0	1.48633e+09
4	0	0	-3.38541e+08
];
Source size = 4
GAMG:  Solving for Dx, Initial residual = 0, Final residual = 0, No Iterations 0
GAMG:  Solving for Dz, Initial residual = 0.289291, Final residual = 0.104019, No Iterations 1
ExecutionTime = 0.04 s  ClockTime = 1 s

Iteration: 8

creating matrix for the layer 1
Data = [
1	1.125e+09
2	2.25e+09
3	2.25e+09
4	1.125e+09
1	0	-1.125e+09
2	1	-1.125e+09
3	2	-1.125e+09
];
 Matrix = sparse(Data(:,1), Data(:,2), Data(:,3));
Source = [
1	0	0	6.93137e+07
2	0	0	2.04048e+09
3	0	0	2.88221e+09
4	0	0	9.11036e+08
];
Source size = 4
GAMG:  Solving for Dx, Initial residual = 0, Final residual = 0, No Iterations 0
GAMG:  Solving for Dz, Initial residual = 0.419371, Final residual = 0.200514, No Iterations 1
ExecutionTime = 0.04 s  ClockTime = 1 s

Iteration: 9

creating matrix for the layer 1
Data = [
1	1.125e+09
2	2.25e+09
3	2.25e+09
4	1.125e+09
1	0	-1.125e+09
2	1	-1.125e+09
3	2	-1.125e+09
];
 Matrix = sparse(Data(:,1), Data(:,2), Data(:,3));
Source = [
1	0	0	1.4311e+09
2	0	0	5.57381e+09
3	0	0	5.27882e+09
4	0	0	1.1361e+09
];
Source size = 4
GAMG:  Solving for Dx, Initial residual = 0, Final residual = 0, No Iterations 0
GAMG:  Solving for Dz, Initial residual = 0.370217, Final residual = 0.0860082, No Iterations 1
ExecutionTime = 0.04 s  ClockTime = 1 s

Iteration: 10

creating matrix for the layer 1
Data = [
1	1.125e+09
2	2.25e+09
3	2.25e+09
4	1.125e+09
1	0	-1.125e+09
2	1	-1.125e+09
3	2	-1.125e+09
];
 Matrix = sparse(Data(:,1), Data(:,2), Data(:,3));
Source = [
1	0	0	7.42004e+08
2	0	0	2.98769e+09
3	0	0	3.55522e+09
4	0	0	1.30954e+09
];
Source size = 4
GAMG:  Solving for Dx, Initial residual = 0, Final residual = 0, No Iterations 0
GAMG:  Solving for Dz, Initial residual = 0.356454, Final residual = 0.120092, No Iterations 1
ExecutionTime = 0.04 s  ClockTime = 1 s

Iteration: 11

creating matrix for the layer 1
Data = [
1	1.125e+09
2	2.25e+09
3	2.25e+09
4	1.125e+09
1	0	-1.125e+09
2	1	-1.125e+09
3	2	-1.125e+09
];
 Matrix = sparse(Data(:,1), Data(:,2), Data(:,3));
Source = [
1	0	0	3.28411e+09
2	0	0	1.16491e+10
3	0	0	1.25411e+10
4	0	0	4.17611e+09
];
Source size = 4
GAMG:  Solving for Dx, Initial residual = 0, Final residual = 0, No Iterations 0
GAMG:  Solving for Dz, Initial residual = 0.416082, Final residual = 0.0788117, No Iterations 1
ExecutionTime = 0.04 s  ClockTime = 1 s

Iteration: 12

creating matrix for the layer 1
Data = [
1	1.125e+09
2	2.25e+09
3	2.25e+09
4	1.125e+09
1	0	-1.125e+09
2	1	-1.125e+09
3	2	-1.125e+09
];
 Matrix = sparse(Data(:,1), Data(:,2), Data(:,3));
Source = [
1	0	0	2.0878e+09
2	0	0	4.48624e+09
3	0	0	3.9314e+09
4	0	0	1.53295e+09
];
Source size = 4
GAMG:  Solving for Dx, Initial residual = 0, Final residual = 0, No Iterations 0
GAMG:  Solving for Dz, Initial residual = 0.371467, Final residual = 0.0993623, No Iterations 1
ExecutionTime = 0.04 s  ClockTime = 1 s

Iteration: 13

creating matrix for the layer 1
Data = [
1	1.125e+09
2	2.25e+09
3	2.25e+09
4	1.125e+09
1	0	-1.125e+09
2	1	-1.125e+09
3	2	-1.125e+09
];
 Matrix = sparse(Data(:,1), Data(:,2), Data(:,3));
Source = [
1	0	0	6.352e+09
2	0	0	2.24799e+10
3	0	0	2.62293e+10
4	0	0	1.01014e+10
];
Source size = 4
GAMG:  Solving for Dx, Initial residual = 0, Final residual = 0, No Iterations 0
GAMG:  Solving for Dz, Initial residual = 0.455494, Final residual = 0.0764295, No Iterations 1
ExecutionTime = 0.04 s  ClockTime = 1 s

Iteration: 14

creating matrix for the layer 1
Data = [
1	1.125e+09
2	2.25e+09
3	2.25e+09
4	1.125e+09
1	0	-1.125e+09
2	1	-1.125e+09
3	2	-1.125e+09
];
 Matrix = sparse(Data(:,1), Data(:,2), Data(:,3));
Source = [
1	0	0	4.59995e+09
2	0	0	6.62139e+09
3	0	0	3.1759e+09
4	0	0	1.15446e+09
];
Source size = 4
GAMG:  Solving for Dx, Initial residual = 0, Final residual = 0, No Iterations 0
GAMG:  Solving for Dz, Initial residual = 0.39193, Final residual = 0.0929012, No Iterations 1
ExecutionTime = 0.04 s  ClockTime = 1 s

Iteration: 15

creating matrix for the layer 1
Data = [
1	1.125e+09
2	2.25e+09
3	2.25e+09
4	1.125e+09
1	0	-1.125e+09
2	1	-1.125e+09
3	2	-1.125e+09
];
 Matrix = sparse(Data(:,1), Data(:,2), Data(:,3));
Source = [
1	0	0	1.14731e+10
2	0	0	4.18493e+10
3	0	0	5.17383e+10
4	0	0	2.13621e+10
];
Source size = 4
GAMG:  Solving for Dx, Initial residual = 0, Final residual = 0, No Iterations 0
GAMG:  Solving for Dz, Initial residual = 0.486821, Final residual = 0.0752486, No Iterations 1
ExecutionTime = 0.04 s  ClockTime = 1 s

Iteration: 16

creating matrix for the layer 1
Data = [
1	1.125e+09
2	2.25e+09
3	2.25e+09
4	1.125e+09
1	0	-1.125e+09
2	1	-1.125e+09
3	2	-1.125e+09
];
 Matrix = sparse(Data(:,1), Data(:,2), Data(:,3));
Source = [
1	0	0	9.08748e+09
2	0	0	9.14826e+09
3	0	0	-7.90998e+08
4	0	0	-8.51774e+08
];
Source size = 4
GAMG:  Solving for Dx, Initial residual = 0, Final residual = 0, No Iterations 0
GAMG:  Solving for Dz, Initial residual = 0.413462, Final residual = 0.0917422, No Iterations 1
ExecutionTime = 0.05 s  ClockTime = 1 s

Iteration: 17

creating matrix for the layer 1
Data = [
1	1.125e+09
2	2.25e+09
3	2.25e+09
4	1.125e+09
1	0	-1.125e+09
2	1	-1.125e+09
3	2	-1.125e+09
];
 Matrix = sparse(Data(:,1), Data(:,2), Data(:,3));
Source = [
1	0	0	2.00549e+10
2	0	0	7.64977e+10
3	0	0	9.88993e+10
4	0	0	4.24564e+10
];
Source size = 4
GAMG:  Solving for Dx, Initial residual = 0, Final residual = 0, No Iterations 0
GAMG:  Solving for Dz, Initial residual = 0.507421, Final residual = 0.0746886, No Iterations 1
ExecutionTime = 0.05 s  ClockTime = 1 s

Iteration: 18

creating matrix for the layer 1
Data = [
1	1.125e+09
2	2.25e+09
3	2.25e+09
4	1.125e+09
1	0	-1.125e+09
2	1	-1.125e+09
3	2	-1.125e+09
];
 Matrix = sparse(Data(:,1), Data(:,2), Data(:,3));
Source = [
1	0	0	1.68251e+10
2	0	0	1.07982e+10
3	0	0	-1.28774e+10
4	0	0	-6.85049e+09
];
Source size = 4
GAMG:  Solving for Dx, Initial residual = 0, Final residual = 0, No Iterations 0
GAMG:  Solving for Dz, Initial residual = 0.426969, Final residual = 0.0913329, No Iterations 1
ExecutionTime = 0.05 s  ClockTime = 1 s

Iteration: 19

creating matrix for the layer 1
Data = [
1	1.125e+09
2	2.25e+09
3	2.25e+09
4	1.125e+09
1	0	-1.125e+09
2	1	-1.125e+09
3	2	-1.125e+09
];
 Matrix = sparse(Data(:,1), Data(:,2), Data(:,3));
Source = [
1	0	0	3.44026e+10
2	0	0	1.38369e+11
3	0	0	1.8557e+11
4	0	0	8.16031e+10
];
Source size = 4
GAMG:  Solving for Dx, Initial residual = 0, Final residual = 0, No Iterations 0
GAMG:  Solving for Dz, Initial residual = 0.521142, Final residual = 0.0743932, No Iterations 1
ExecutionTime = 0.06 s  ClockTime = 1 s

Iteration: 20

creating matrix for the layer 1
Data = [
1	1.125e+09
2	2.25e+09
3	2.25e+09
4	1.125e+09
1	0	-1.125e+09
2	1	-1.125e+09
3	2	-1.125e+09
];
 Matrix = sparse(Data(:,1), Data(:,2), Data(:,3));
Source = [
1	0	0	2.9714e+10
2	0	0	7.5815e+09
3	0	0	-4.42734e+10
4	0	0	-2.21409e+10
];
Source size = 4
GAMG:  Solving for Dx, Initial residual = 0, Final residual = 0, No Iterations 0
GAMG:  Solving for Dz, Initial residual = 0.441577, Final residual = 0.0925656, No Iterations 1
ExecutionTime = 0.06 s  ClockTime = 1 s

Iteration: 21

creating matrix for the layer 1
Data = [
1	1.125e+09
2	2.25e+09
3	2.25e+09
4	1.125e+09
1	0	-1.125e+09
2	1	-1.125e+09
3	2	-1.125e+09
];
 Matrix = sparse(Data(:,1), Data(:,2), Data(:,3));
Source = [
1	0	0	5.81757e+10
2	0	0	2.4847e+11
3	0	0	3.44056e+11
4	0	0	1.53762e+11
];
Source size = 4
GAMG:  Solving for Dx, Initial residual = 0, Final residual = 0, No Iterations 0
GAMG:  Solving for Dz, Initial residual = 0.531687, Final residual = 0.0743447, No Iterations 1
ExecutionTime = 0.06 s  ClockTime = 1 s

Iteration: 22

creating matrix for the layer 1
Data = [
1	1.125e+09
2	2.25e+09
3	2.25e+09
4	1.125e+09
1	0	-1.125e+09
2	1	-1.125e+09
3	2	-1.125e+09
];
 Matrix = sparse(Data(:,1), Data(:,2), Data(:,3));
Source = [
1	0	0	5.03369e+10
2	0	0	-1.11893e+10
3	0	0	-1.1989e+11
4	0	0	-5.83641e+10
];
Source size = 4
GAMG:  Solving for Dx, Initial residual = 0, Final residual = 0, No Iterations 0
GAMG:  Solving for Dz, Initial residual = 0.453624, Final residual = 0.0940631, No Iterations 1
ExecutionTime = 0.06 s  ClockTime = 1 s

Iteration: 23

creating matrix for the layer 1
Data = [
1	1.125e+09
2	2.25e+09
3	2.25e+09
4	1.125e+09
1	0	-1.125e+09
2	1	-1.125e+09
3	2	-1.125e+09
];
 Matrix = sparse(Data(:,1), Data(:,2), Data(:,3));
Source = [
1	0	0	9.69145e+10
2	0	0	4.43388e+11
3	0	0	6.32522e+11
4	0	0	2.86049e+11
];
Source size = 4
GAMG:  Solving for Dx, Initial residual = 0, Final residual = 0, No Iterations 0
GAMG:  Solving for Dz, Initial residual = 0.539914, Final residual = 0.0743373, No Iterations 1
ExecutionTime = 0.06 s  ClockTime = 1 s

Iteration: 24

creating matrix for the layer 1
Data = [
1	1.125e+09
2	2.25e+09
3	2.25e+09
4	1.125e+09
1	0	-1.125e+09
2	1	-1.125e+09
3	2	-1.125e+09
];
 Matrix = sparse(Data(:,1), Data(:,2), Data(:,3));
Source = [
1	0	0	8.15662e+10
2	0	0	-7.19423e+10
3	0	0	-2.94227e+11
4	0	0	-1.40719e+11
];
Source size = 4
GAMG:  Solving for Dx, Initial residual = 0, Final residual = 0, No Iterations 0
GAMG:  Solving for Dz, Initial residual = 0.461483, Final residual = 0.0951806, No Iterations 1
ExecutionTime = 0.06 s  ClockTime = 1 s

Iteration: 25

creating matrix for the layer 1
Data = [
1	1.125e+09
2	2.25e+09
3	2.25e+09
4	1.125e+09
1	0	-1.125e+09
2	1	-1.125e+09
3	2	-1.125e+09
];
 Matrix = sparse(Data(:,1), Data(:,2), Data(:,3));
Source = [
1	0	0	1.58365e+11
2	0	0	7.86061e+11
3	0	0	1.15508e+12
4	0	0	5.27382e+11
];
Source size = 4
GAMG:  Solving for Dx, Initial residual = 0, Final residual = 0, No Iterations 0
GAMG:  Solving for Dz, Initial residual = 0.546341, Final residual = 0.0742531, No Iterations 1
ExecutionTime = 0.07 s  ClockTime = 1 s

Iteration: 26

creating matrix for the layer 1
Data = [
1	1.125e+09
2	2.25e+09
3	2.25e+09
4	1.125e+09
1	0	-1.125e+09
2	1	-1.125e+09
3	2	-1.125e+09
];
 Matrix = sparse(Data(:,1), Data(:,2), Data(:,3));
Source = [
1	0	0	1.24831e+11
2	0	0	-2.36983e+11
3	0	0	-6.84956e+11
4	0	0	-3.23141e+11
];
Source size = 4
GAMG:  Solving for Dx, Initial residual = 0, Final residual = 0, No Iterations 0
GAMG:  Solving for Dz, Initial residual = 0.468745, Final residual = 0.0964829, No Iterations 1
ExecutionTime = 0.07 s  ClockTime = 1 s

Iteration: 27

creating matrix for the layer 1
Data = [
1	1.125e+09
2	2.25e+09
3	2.25e+09
4	1.125e+09
1	0	-1.125e+09
2	1	-1.125e+09
3	2	-1.125e+09
];
 Matrix = sparse(Data(:,1), Data(:,2), Data(:,3));
Source = [
1	0	0	2.51746e+11
2	0	0	1.383e+12
3	0	0	2.09676e+12
4	0	0	9.65505e+11
];
Source size = 4
GAMG:  Solving for Dx, Initial residual = 0, Final residual = 0, No Iterations 0
GAMG:  Solving for Dz, Initial residual = 0.551273, Final residual = 0.0740222, No Iterations 1
ExecutionTime = 0.07 s  ClockTime = 1 s

Iteration: 28

creating matrix for the layer 1
Data = [
1	1.125e+09
2	2.25e+09
3	2.25e+09
4	1.125e+09
1	0	-1.125e+09
2	1	-1.125e+09
3	2	-1.125e+09
];
 Matrix = sparse(Data(:,1), Data(:,2), Data(:,3));
Source = [
1	0	0	1.74852e+11
2	0	0	-6.48635e+11
3	0	0	-1.54355e+12
4	0	0	-7.20066e+11
];
Source size = 4
GAMG:  Solving for Dx, Initial residual = 0, Final residual = 0, No Iterations 0
GAMG:  Solving for Dz, Initial residual = 0.475306, Final residual = 0.0978434, No Iterations 1
ExecutionTime = 0.07 s  ClockTime = 1 s

Iteration: 29

creating matrix for the layer 1
Data = [
1	1.125e+09
2	2.25e+09
3	2.25e+09
4	1.125e+09
1	0	-1.125e+09
2	1	-1.125e+09
3	2	-1.125e+09
];
 Matrix = sparse(Data(:,1), Data(:,2), Data(:,3));
Source = [
1	0	0	3.83661e+11
2	0	0	2.41052e+12
3	0	0	3.78357e+12
4	0	0	1.75671e+12
];
Source size = 4
GAMG:  Solving for Dx, Initial residual = 0, Final residual = 0, No Iterations 0
GAMG:  Solving for Dz, Initial residual = 0.554875, Final residual = 0.0736003, No Iterations 1
ExecutionTime = 0.07 s  ClockTime = 1 s

Iteration: 30

creating matrix for the layer 1
Data = [
1	1.125e+09
2	2.25e+09
3	2.25e+09
4	1.125e+09
1	0	-1.125e+09
2	1	-1.125e+09
3	2	-1.125e+09
];
 Matrix = sparse(Data(:,1), Data(:,2), Data(:,3));
Source = [
1	0	0	2.05697e+11
2	0	0	-1.62485e+12
3	0	0	-3.40311e+12
4	0	0	-1.57257e+12
];
Source size = 4
GAMG:  Solving for Dx, Initial residual = 0, Final residual = 0, No Iterations 0
GAMG:  Solving for Dz, Initial residual = 0.481118, Final residual = 0.0991919, No Iterations 1
ExecutionTime = 0.07 s  ClockTime = 1 s

Iteration: 31

creating matrix for the layer 1
Data = [
1	1.125e+09
2	2.25e+09
3	2.25e+09
4	1.125e+09
1	0	-1.125e+09
2	1	-1.125e+09
3	2	-1.125e+09
];
 Matrix = sparse(Data(:,1), Data(:,2), Data(:,3));
Source = [
1	0	0	5.44918e+11
2	0	0	4.15142e+12
3	0	0	6.78351e+12
4	0	0	3.17701e+12
];
Source size = 4
GAMG:  Solving for Dx, Initial residual = 0, Final residual = 0, No Iterations 0
GAMG:  Solving for Dz, Initial residual = 0.55723, Final residual = 0.072958, No Iterations 1
ExecutionTime = 0.07 s  ClockTime = 1 s

Iteration: 32

creating matrix for the layer 1
Data = [
1	1.125e+09
2	2.25e+09
3	2.25e+09
4	1.125e+09
1	0	-1.125e+09
2	1	-1.125e+09
3	2	-1.125e+09
];
 Matrix = sparse(Data(:,1), Data(:,2), Data(:,3));
Source = [
1	0	0	1.36375e+11
2	0	0	-3.8643e+12
3	0	0	-7.38629e+12
4	0	0	-3.38561e+12
];
Source size = 4
GAMG:  Solving for Dx, Initial residual = 0, Final residual = 0, No Iterations 0
GAMG:  Solving for Dz, Initial residual = 0.486156, Final residual = 0.100489, No Iterations 1
ExecutionTime = 0.07 s  ClockTime = 1 s

Iteration: 33

creating matrix for the layer 1
Data = [
1	1.125e+09
2	2.25e+09
3	2.25e+09
4	1.125e+09
1	0	-1.125e+09
2	1	-1.125e+09
3	2	-1.125e+09
];
 Matrix = sparse(Data(:,1), Data(:,2), Data(:,3));
Source = [
1	0	0	6.74638e+11
2	0	0	7.03828e+12
3	0	0	1.20722e+13
4	0	0	5.7086e+12
];
Source size = 4
GAMG:  Solving for Dx, Initial residual = 0, Final residual = 0, No Iterations 0
GAMG:  Solving for Dz, Initial residual = 0.558366, Final residual = 0.0720742, No Iterations 1
ExecutionTime = 0.08 s  ClockTime = 1 s

Iteration: 34

creating matrix for the layer 1
Data = [
1	1.125e+09
2	2.25e+09
3	2.25e+09
4	1.125e+09
1	0	-1.125e+09
2	1	-1.125e+09
3	2	-1.125e+09
];
 Matrix = sparse(Data(:,1), Data(:,2), Data(:,3));
Source = [
1	0	0	-2.50411e+11
2	0	0	-8.88323e+12
3	0	0	-1.58448e+13
4	0	0	-7.21193e+12
];
Source size = 4
GAMG:  Solving for Dx, Initial residual = 0, Final residual = 0, No Iterations 0
GAMG:  Solving for Dz, Initial residual = 0.490414, Final residual = 0.101713, No Iterations 1
ExecutionTime = 0.08 s  ClockTime = 1 s

Iteration: 35

creating matrix for the layer 1
Data = [
1	1.125e+09
2	2.25e+09
3	2.25e+09
4	1.125e+09
1	0	-1.125e+09
2	1	-1.125e+09
3	2	-1.125e+09
];
 Matrix = sparse(Data(:,1), Data(:,2), Data(:,3));
Source = [
1	0	0	5.70155e+11
2	0	0	1.16822e+13
3	0	0	2.12943e+13
4	0	0	1.01823e+13
];
Source size = 4
GAMG:  Solving for Dx, Initial residual = 0, Final residual = 0, No Iterations 0
GAMG:  Solving for Dz, Initial residual = 0.55828, Final residual = 0.0709328, No Iterations 1
ExecutionTime = 0.09 s  ClockTime = 1 s

Iteration: 36

creating matrix for the layer 1
Data = [
1	1.125e+09
2	2.25e+09
3	2.25e+09
4	1.125e+09
1	0	-1.125e+09
2	1	-1.125e+09
3	2	-1.125e+09
];
 Matrix = sparse(Data(:,1), Data(:,2), Data(:,3));
Source = [
1	0	0	-1.49463e+12
2	0	0	-1.99398e+13
3	0	0	-3.36829e+13
4	0	0	-1.52378e+13
];
Source size = 4
GAMG:  Solving for Dx, Initial residual = 0, Final residual = 0, No Iterations 0
GAMG:  Solving for Dz, Initial residual = 0.493891, Final residual = 0.102852, No Iterations 1
ExecutionTime = 0.09 s  ClockTime = 1 s

Iteration: 37

creating matrix for the layer 1
Data = [
1	1.125e+09
2	2.25e+09
3	2.25e+09
4	1.125e+09
1	0	-1.125e+09
2	1	-1.125e+09
3	2	-1.125e+09
];
 Matrix = sparse(Data(:,1), Data(:,2), Data(:,3));
Source = [
1	0	0	-3.28317e+11
2	0	0	1.88183e+13
3	0	0	3.71504e+13
4	0	0	1.80037e+13
];
Source size = 4
GAMG:  Solving for Dx, Initial residual = 0, Final residual = 0, No Iterations 0
GAMG:  Solving for Dz, Initial residual = 0.547325, Final residual = 0.0683195, No Iterations 1
ExecutionTime = 0.09 s  ClockTime = 1 s

Iteration: 38

creating matrix for the layer 1
Data = [
1	1.125e+09
2	2.25e+09
3	2.25e+09
4	1.125e+09
1	0	-1.125e+09
2	1	-1.125e+09
3	2	-1.125e+09
];
 Matrix = sparse(Data(:,1), Data(:,2), Data(:,3));
Source = [
1	0	0	-4.87764e+12
2	0	0	-4.39807e+13
3	0	0	-7.10917e+13
4	0	0	-3.19886e+13
];
Source size = 4
GAMG:  Solving for Dx, Initial residual = 0, Final residual = 0, No Iterations 0
GAMG:  Solving for Dz, Initial residual = 0.491739, Final residual = 0.102882, No Iterations 1
ExecutionTime = 0.09 s  ClockTime = 1 s

Iteration: 39

creating matrix for the layer 1
Data = [
1	1.125e+09
2	2.25e+09
3	2.25e+09
4	1.125e+09
1	0	-1.125e+09
2	1	-1.125e+09
3	2	-1.125e+09
];
 Matrix = sparse(Data(:,1), Data(:,2), Data(:,3));
Source = [
1	0	0	-3.4362e+12
2	0	0	2.89823e+13
3	0	0	6.39102e+13
4	0	0	3.14917e+13
];
Source size = 4
GAMG:  Solving for Dx, Initial residual = 0, Final residual = 0, No Iterations 0
GAMG:  Solving for Dz, Initial residual = 0.527628, Final residual = 0.0645594, No Iterations 1
ExecutionTime = 0.09 s  ClockTime = 1 s

Iteration: 40

creating matrix for the layer 1
Data = [
1	1.125e+09
2	2.25e+09
3	2.25e+09
4	1.125e+09
1	0	-1.125e+09
2	1	-1.125e+09
3	2	-1.125e+09
];
 Matrix = sparse(Data(:,1), Data(:,2), Data(:,3));
Source = [
1	0	0	-1.33482e+13
2	0	0	-9.57238e+13
3	0	0	-1.49182e+14
4	0	0	-6.68069e+13
];
Source size = 4
GAMG:  Solving for Dx, Initial residual = 0, Final residual = 0, No Iterations 0
GAMG:  Solving for Dz, Initial residual = 0.484995, Final residual = 0.102001, No Iterations 1
ExecutionTime = 0.09 s  ClockTime = 1 s

Iteration: 41

creating matrix for the layer 1
Data = [
1	1.125e+09
2	2.25e+09
3	2.25e+09
4	1.125e+09
1	0	-1.125e+09
2	1	-1.125e+09
3	2	-1.125e+09
];
 Matrix = sparse(Data(:,1), Data(:,2), Data(:,3));
Source = [
1	0	0	-1.21527e+13
2	0	0	4.14448e+13
3	0	0	1.07933e+14
4	0	0	5.43357e+13
];
Source size = 4
GAMG:  Solving for Dx, Initial residual = 0, Final residual = 0, No Iterations 0
GAMG:  Solving for Dz, Initial residual = 0.507081, Final residual = 0.0606609, No Iterations 1
ExecutionTime = 0.09 s  ClockTime = 1 s

Iteration: 42

creating matrix for the layer 1
Data = [
1	1.125e+09
2	2.25e+09
3	2.25e+09
4	1.125e+09
1	0	-1.125e+09
2	1	-1.125e+09
3	2	-1.125e+09
];
 Matrix = sparse(Data(:,1), Data(:,2), Data(:,3));
Source = [
1	0	0	-3.35469e+13
2	0	0	-2.06189e+14
3	0	0	-3.11578e+14
4	0	0	-1.38936e+14
];
Source size = 4
GAMG:  Solving for Dx, Initial residual = 0, Final residual = 0, No Iterations 0
GAMG:  Solving for Dz, Initial residual = 0.477614, Final residual = 0.101025, No Iterations 1
ExecutionTime = 0.09 s  ClockTime = 1 s

Iteration: 43

creating matrix for the layer 1
Data = [
1	1.125e+09
2	2.25e+09
3	2.25e+09
4	1.125e+09
1	0	-1.125e+09
2	1	-1.125e+09
3	2	-1.125e+09
];
 Matrix = sparse(Data(:,1), Data(:,2), Data(:,3));
Source = [
1	0	0	-3.43722e+13
2	0	0	5.12698e+13
3	0	0	1.77726e+14
4	0	0	9.20842e+13
];
Source size = 4
GAMG:  Solving for Dx, Initial residual = 0, Final residual = 0, No Iterations 0
GAMG:  Solving for Dz, Initial residual = 0.485849, Final residual = 0.0566525, No Iterations 1
ExecutionTime = 0.09 s  ClockTime = 1 s

Iteration: 44

creating matrix for the layer 1
Data = [
1	1.125e+09
2	2.25e+09
3	2.25e+09
4	1.125e+09
1	0	-1.125e+09
2	1	-1.125e+09
3	2	-1.125e+09
];
 Matrix = sparse(Data(:,1), Data(:,2), Data(:,3));
Source = [
1	0	0	-8.01888e+13
2	0	0	-4.40479e+14
3	0	0	-6.48228e+14
4	0	0	-2.87938e+14
];
Source size = 4
GAMG:  Solving for Dx, Initial residual = 0, Final residual = 0, No Iterations 0
GAMG:  Solving for Dz, Initial residual = 0.46967, Final residual = 0.0999635, No Iterations 1
ExecutionTime = 0.09 s  ClockTime = 1 s

Iteration: 45

creating matrix for the layer 1
Data = [
1	1.125e+09
2	2.25e+09
3	2.25e+09
4	1.125e+09
1	0	-1.125e+09
2	1	-1.125e+09
3	2	-1.125e+09
];
 Matrix = sparse(Data(:,1), Data(:,2), Data(:,3));
Source = [
1	0	0	-8.80026e+13
2	0	0	4.18516e+13
3	0	0	2.82144e+14
4	0	0	1.5229e+14
];
Source size = 4
GAMG:  Solving for Dx, Initial residual = 0, Final residual = 0, No Iterations 0
GAMG:  Solving for Dz, Initial residual = 0.464095, Final residual = 0.0539229, No Iterations 1
ExecutionTime = 0.1 s  ClockTime = 1 s

Iteration: 46

creating matrix for the layer 1
Data = [
1	1.125e+09
2	2.25e+09
3	2.25e+09
4	1.125e+09
1	0	-1.125e+09
2	1	-1.125e+09
3	2	-1.125e+09
];
 Matrix = sparse(Data(:,1), Data(:,2), Data(:,3));
Source = [
1	0	0	-1.85482e+14
2	0	0	-9.34735e+14
3	0	0	-1.34427e+15
4	0	0	-5.95021e+14
];
Source size = 4
GAMG:  Solving for Dx, Initial residual = 0, Final residual = 0, No Iterations 0
GAMG:  Solving for Dz, Initial residual = 0.461236, Final residual = 0.098827, No Iterations 1
ExecutionTime = 0.1 s  ClockTime = 1 s

Iteration: 47

creating matrix for the layer 1
Data = [
1	1.125e+09
2	2.25e+09
3	2.25e+09
4	1.125e+09
1	0	-1.125e+09
2	1	-1.125e+09
3	2	-1.125e+09
];
 Matrix = sparse(Data(:,1), Data(:,2), Data(:,3));
Source = [
1	0	0	-2.12973e+14
2	0	0	-3.30987e+13
3	0	0	4.23056e+14
4	0	0	2.43182e+14
];
Source size = 4
GAMG:  Solving for Dx, Initial residual = 0, Final residual = 0, No Iterations 0
GAMG:  Solving for Dz, Initial residual = 0.439628, Final residual = 0.0521022, No Iterations 1
ExecutionTime = 0.11 s  ClockTime = 1 s

Iteration: 48

creating matrix for the layer 1
Data = [
1	1.125e+09
2	2.25e+09
3	2.25e+09
4	1.125e+09
1	0	-1.125e+09
2	1	-1.125e+09
3	2	-1.125e+09
];
 Matrix = sparse(Data(:,1), Data(:,2), Data(:,3));
Source = [
1	0	0	-4.19247e+14
2	0	0	-1.97281e+15
3	0	0	-2.78023e+15
4	0	0	-1.22667e+15
];
Source size = 4
GAMG:  Solving for Dx, Initial residual = 0, Final residual = 0, No Iterations 0
GAMG:  Solving for Dz, Initial residual = 0.450551, Final residual = 0.0972294, No Iterations 1
ExecutionTime = 0.11 s  ClockTime = 1 s

Iteration: 49

creating matrix for the layer 1
Data = [
1	1.125e+09
2	2.25e+09
3	2.25e+09
4	1.125e+09
1	0	-1.125e+09
2	1	-1.125e+09
3	2	-1.125e+09
];
 Matrix = sparse(Data(:,1), Data(:,2), Data(:,3));
Source = [
1	0	0	-4.97148e+14
2	0	0	-2.91628e+14
3	0	0	5.73363e+14
4	0	0	3.67843e+14
];
Source size = 4
GAMG:  Solving for Dx, Initial residual = 0, Final residual = 0, No Iterations 0
GAMG:  Solving for Dz, Initial residual = 0.410016, Final residual = 0.049675, No Iterations 1
ExecutionTime = 0.11 s  ClockTime = 1 s

Iteration: 50

creating matrix for the layer 1
Data = [
1	1.125e+09
2	2.25e+09
3	2.25e+09
4	1.125e+09
1	0	-1.125e+09
2	1	-1.125e+09
3	2	-1.125e+09
];
 Matrix = sparse(Data(:,1), Data(:,2), Data(:,3));
Source = [
1	0	0	-9.3166e+14
2	0	0	-4.14507e+15
3	0	0	-5.73721e+15
4	0	0	-2.52379e+15
];
Source size = 4
GAMG:  Solving for Dx, Initial residual = 0, Final residual = 0, No Iterations 0
GAMG:  Solving for Dz, Initial residual = 0.436692, Final residual = 0.0949561, No Iterations 1
ExecutionTime = 0.11 s  ClockTime = 1 s

Iteration: 51

creating matrix for the layer 1
Data = [
1	1.125e+09
2	2.25e+09
3	2.25e+09
4	1.125e+09
1	0	-1.125e+09
2	1	-1.125e+09
3	2	-1.125e+09
];
 Matrix = sparse(Data(:,1), Data(:,2), Data(:,3));
Source = [
1	0	0	-1.13191e+15
2	0	0	-1.01957e+15
3	0	0	6.18691e+14
4	0	0	5.06357e+14
];
Source size = 4
GAMG:  Solving for Dx, Initial residual = 0, Final residual = 0, No Iterations 0
GAMG:  Solving for Dz, Initial residual = 0.381624, Final residual = 0.0473761, No Iterations 1
ExecutionTime = 0.11 s  ClockTime = 1 s

Iteration: 52

creating matrix for the layer 1
Data = [
1	1.125e+09
2	2.25e+09
3	2.25e+09
4	1.125e+09
1	0	-1.125e+09
2	1	-1.125e+09
3	2	-1.125e+09
];
 Matrix = sparse(Data(:,1), Data(:,2), Data(:,3));
Source = [
1	0	0	-2.04372e+15
2	0	0	-8.67676e+15
3	0	0	-1.1817e+16
4	0	0	-5.18394e+15
];
Source size = 4
GAMG:  Solving for Dx, Initial residual = 0, Final residual = 0, No Iterations 0
GAMG:  Solving for Dz, Initial residual = 0.423026, Final residual = 0.0927245, No Iterations 1
ExecutionTime = 0.11 s  ClockTime = 1 s

Iteration: 53

creating matrix for the layer 1
Data = [
1	1.125e+09
2	2.25e+09
3	2.25e+09
4	1.125e+09
1	0	-1.125e+09
2	1	-1.125e+09
3	2	-1.125e+09
];
 Matrix = sparse(Data(:,1), Data(:,2), Data(:,3));
Source = [
1	0	0	-2.53068e+15
2	0	0	-2.88603e+15
3	0	0	2.12552e+14
4	0	0	5.67909e+14
];
Source size = 4
GAMG:  Solving for Dx, Initial residual = 0, Final residual = 0, No Iterations 0
GAMG:  Solving for Dz, Initial residual = 0.354462, Final residual = 0.045202, No Iterations 1
ExecutionTime = 0.11 s  ClockTime = 1 s

Iteration: 54

creating matrix for the layer 1
Data = [
1	1.125e+09
2	2.25e+09
3	2.25e+09
4	1.125e+09
1	0	-1.125e+09
2	1	-1.125e+09
3	2	-1.125e+09
];
 Matrix = sparse(Data(:,1), Data(:,2), Data(:,3));
Source = [
1	0	0	-4.43796e+15
2	0	0	-1.81063e+16
3	0	0	-2.43016e+16
4	0	0	-1.06333e+16
];
Source size = 4
GAMG:  Solving for Dx, Initial residual = 0, Final residual = 0, No Iterations 0
GAMG:  Solving for Dz, Initial residual = 0.409215, Final residual = 0.0904566, No Iterations 1
ExecutionTime = 0.11 s  ClockTime = 1 s

Iteration: 55

creating matrix for the layer 1
Data = [
1	1.125e+09
2	2.25e+09
3	2.25e+09
4	1.125e+09
1	0	-1.125e+09
2	1	-1.125e+09
3	2	-1.125e+09
];
 Matrix = sparse(Data(:,1), Data(:,2), Data(:,3));
Source = [
1	0	0	-5.58062e+15
2	0	0	-7.42053e+15
3	0	0	-1.56895e+15
4	0	0	2.70966e+14
];
Source size = 4
GAMG:  Solving for Dx, Initial residual = 0, Final residual = 0, No Iterations 0
GAMG:  Solving for Dz, Initial residual = 0.323848, Final residual = 0.0425346, No Iterations 1
ExecutionTime = 0.11 s  ClockTime = 1 s

Iteration: 56

creating matrix for the layer 1
Data = [
1	1.125e+09
2	2.25e+09
3	2.25e+09
4	1.125e+09
1	0	-1.125e+09
2	1	-1.125e+09
3	2	-1.125e+09
];
 Matrix = sparse(Data(:,1), Data(:,2), Data(:,3));
Source = [
1	0	0	-9.55945e+15
2	0	0	-3.76846e+16
3	0	0	-4.99114e+16
4	0	0	-2.17863e+16
];
Source size = 4
GAMG:  Solving for Dx, Initial residual = 0, Final residual = 0, No Iterations 0
GAMG:  Solving for Dz, Initial residual = 0.391681, Final residual = 0.0873486, No Iterations 1
ExecutionTime = 0.11 s  ClockTime = 1 s

Iteration: 57

creating matrix for the layer 1
Data = [
1	1.125e+09
2	2.25e+09
3	2.25e+09
4	1.125e+09
1	0	-1.125e+09
2	1	-1.125e+09
3	2	-1.125e+09
];
 Matrix = sparse(Data(:,1), Data(:,2), Data(:,3));
Source = [
1	0	0	-1.21751e+16
2	0	0	-1.80589e+16
3	0	0	-7.02766e+15
4	0	0	-1.14377e+15
];
Source size = 4
GAMG:  Solving for Dx, Initial residual = 0, Final residual = 0, No Iterations 0
GAMG:  Solving for Dz, Initial residual = 0.294495, Final residual = 0.0399495, No Iterations 1
ExecutionTime = 0.12 s  ClockTime = 1 s

Iteration: 58

creating matrix for the layer 1
Data = [
1	1.125e+09
2	2.25e+09
3	2.25e+09
4	1.125e+09
1	0	-1.125e+09
2	1	-1.125e+09
3	2	-1.125e+09
];
 Matrix = sparse(Data(:,1), Data(:,2), Data(:,3));
Source = [
1	0	0	-2.04565e+16
2	0	0	-7.82607e+16
3	0	0	-1.024e+17
4	0	0	-4.45957e+16
];
Source size = 4
GAMG:  Solving for Dx, Initial residual = 0, Final residual = 0, No Iterations 0
GAMG:  Solving for Dz, Initial residual = 0.375052, Final residual = 0.0844143, No Iterations 1
ExecutionTime = 0.12 s  ClockTime = 2 s

Iteration: 59

creating matrix for the layer 1
Data = [
1	1.125e+09
2	2.25e+09
3	2.25e+09
4	1.125e+09
1	0	-1.125e+09
2	1	-1.125e+09
3	2	-1.125e+09
];
 Matrix = sparse(Data(:,1), Data(:,2), Data(:,3));
Source = [
1	0	0	-2.63361e+16
2	0	0	-4.2417e+16
3	0	0	-2.16622e+16
4	0	0	-5.58127e+15
];
Source size = 4
GAMG:  Solving for Dx, Initial residual = 0, Final residual = 0, No Iterations 0
GAMG:  Solving for Dz, Initial residual = 0.267546, Final residual = 0.0375987, No Iterations 1
ExecutionTime = 0.13 s  ClockTime = 2 s

Iteration: 60

creating matrix for the layer 1
Data = [
1	1.125e+09
2	2.25e+09
3	2.25e+09
4	1.125e+09
1	0	-1.125e+09
2	1	-1.125e+09
3	2	-1.125e+09
];
 Matrix = sparse(Data(:,1), Data(:,2), Data(:,3));
Source = [
1	0	0	-4.35395e+16
2	0	0	-1.62225e+17
3	0	0	-2.09903e+17
4	0	0	-9.12171e+16
];
Source size = 4
GAMG:  Solving for Dx, Initial residual = 0, Final residual = 0, No Iterations 0
GAMG:  Solving for Dz, Initial residual = 0.359284, Final residual = 0.0816439, No Iterations 1
ExecutionTime = 0.13 s  ClockTime = 2 s

Iteration: 61

creating matrix for the layer 1
Data = [
1	1.125e+09
2	2.25e+09
3	2.25e+09
4	1.125e+09
1	0	-1.125e+09
2	1	-1.125e+09
3	2	-1.125e+09
];
 Matrix = sparse(Data(:,1), Data(:,2), Data(:,3));
Source = [
1	0	0	-5.65756e+16
2	0	0	-9.71993e+16
3	0	0	-5.82377e+16
4	0	0	-1.7614e+16
];
Source size = 4
GAMG:  Solving for Dx, Initial residual = 0, Final residual = 0, No Iterations 0
GAMG:  Solving for Dz, Initial residual = 0.242758, Final residual = 0.0354563, No Iterations 1
ExecutionTime = 0.13 s  ClockTime = 2 s

Iteration: 62

creating matrix for the layer 1
Data = [
1	1.125e+09
2	2.25e+09
3	2.25e+09
4	1.125e+09
1	0	-1.125e+09
2	1	-1.125e+09
3	2	-1.125e+09
];
 Matrix = sparse(Data(:,1), Data(:,2), Data(:,3));
Source = [
1	0	0	-9.22544e+16
2	0	0	-3.35748e+17
3	0	0	-4.29959e+17
4	0	0	-1.86466e+17
];
Source size = 4
GAMG:  Solving for Dx, Initial residual = 0, Final residual = 0, No Iterations 0
GAMG:  Solving for Dz, Initial residual = 0.344335, Final residual = 0.079028, No Iterations 1
ExecutionTime = 0.13 s  ClockTime = 2 s

Iteration: 63

creating matrix for the layer 1
Data = [
1	1.125e+09
2	2.25e+09
3	2.25e+09
4	1.125e+09
1	0	-1.125e+09
2	1	-1.125e+09
3	2	-1.125e+09
];
 Matrix = sparse(Data(:,1), Data(:,2), Data(:,3));
Source = [
1	0	0	-1.20848e+17
2	0	0	-2.18738e+17
3	0	0	-1.45786e+17
4	0	0	-4.78953e+16
];
Source size = 4
GAMG:  Solving for Dx, Initial residual = 0, Final residual = 0, No Iterations 0
GAMG:  Solving for Dz, Initial residual = 0.219921, Final residual = 0.0335002, No Iterations 1
ExecutionTime = 0.13 s  ClockTime = 2 s

Iteration: 64

creating matrix for the layer 1
Data = [
1	1.125e+09
2	2.25e+09
3	2.25e+09
4	1.125e+09
1	0	-1.125e+09
2	1	-1.125e+09
3	2	-1.125e+09
];
 Matrix = sparse(Data(:,1), Data(:,2), Data(:,3));
Source = [
1	0	0	-1.94741e+17
2	0	0	-6.93962e+17
3	0	0	-8.80216e+17
4	0	0	-3.80995e+17
];
Source size = 4
GAMG:  Solving for Dx, Initial residual = 0, Final residual = 0, No Iterations 0
GAMG:  Solving for Dz, Initial residual = 0.330166, Final residual = 0.076558, No Iterations 1
ExecutionTime = 0.13 s  ClockTime = 2 s

Iteration: 65

creating matrix for the layer 1
Data = [
1	1.125e+09
2	2.25e+09
3	2.25e+09
4	1.125e+09
1	0	-1.125e+09
2	1	-1.125e+09
3	2	-1.125e+09
];
 Matrix = sparse(Data(:,1), Data(:,2), Data(:,3));
Source = [
1	0	0	-2.56918e+17
2	0	0	-4.85515e+17
3	0	0	-3.49319e+17
4	0	0	-1.20722e+17
];
Source size = 4
GAMG:  Solving for Dx, Initial residual = 0, Final residual = 0, No Iterations 0
GAMG:  Solving for Dz, Initial residual = 0.198848, Final residual = 0.031711, No Iterations 1
ExecutionTime = 0.13 s  ClockTime = 2 s

Iteration: 66

creating matrix for the layer 1
Data = [
1	1.125e+09
2	2.25e+09
3	2.25e+09
4	1.125e+09
1	0	-1.125e+09
2	1	-1.125e+09
3	2	-1.125e+09
];
 Matrix = sparse(Data(:,1), Data(:,2), Data(:,3));
Source = [
1	0	0	-4.09776e+17
2	0	0	-1.43277e+18
3	0	0	-1.80119e+18
4	0	0	-7.78191e+17
];
Source size = 4
GAMG:  Solving for Dx, Initial residual = 0, Final residual = 0, No Iterations 0
GAMG:  Solving for Dz, Initial residual = 0.316739, Final residual = 0.0742258, No Iterations 1
ExecutionTime = 0.14 s  ClockTime = 2 s

Iteration: 67

creating matrix for the layer 1
Data = [
1	1.125e+09
2	2.25e+09
3	2.25e+09
4	1.125e+09
1	0	-1.125e+09
2	1	-1.125e+09
3	2	-1.125e+09
];
 Matrix = sparse(Data(:,1), Data(:,2), Data(:,3));
Source = [
1	0	0	-5.44037e+17
2	0	0	-1.06609e+18
3	0	0	-8.12681e+17
4	0	0	-2.90628e+17
];
Source size = 4
GAMG:  Solving for Dx, Initial residual = 0, Final residual = 0, No Iterations 0
GAMG:  Solving for Dz, Initial residual = 0.179377, Final residual = 0.0300716, No Iterations 1
ExecutionTime = 0.14 s  ClockTime = 2 s

Iteration: 68

creating matrix for the layer 1
Data = [
1	1.125e+09
2	2.25e+09
3	2.25e+09
4	1.125e+09
1	0	-1.125e+09
2	1	-1.125e+09
3	2	-1.125e+09
];
 Matrix = sparse(Data(:,1), Data(:,2), Data(:,3));
Source = [
1	0	0	-8.59927e+17
2	0	0	-2.95538e+18
3	0	0	-3.68452e+18
4	0	0	-1.58907e+18
];
Source size = 4
GAMG:  Solving for Dx, Initial residual = 0, Final residual = 0, No Iterations 0
GAMG:  Solving for Dz, Initial residual = 0.30402, Final residual = 0.0720239, No Iterations 1
ExecutionTime = 0.14 s  ClockTime = 2 s

Iteration: 69

creating matrix for the layer 1
Data = [
1	1.125e+09
2	2.25e+09
3	2.25e+09
4	1.125e+09
1	0	-1.125e+09
2	1	-1.125e+09
3	2	-1.125e+09
];
 Matrix = sparse(Data(:,1), Data(:,2), Data(:,3));
Source = [
1	0	0	-1.14816e+18
2	0	0	-2.32077e+18
3	0	0	-1.85111e+18
4	0	0	-6.78508e+17
];
Source size = 4
GAMG:  Solving for Dx, Initial residual = 0, Final residual = 0, No Iterations 0
GAMG:  Solving for Dz, Initial residual = 0.161362, Final residual = 0.0285673, No Iterations 1
ExecutionTime = 0.14 s  ClockTime = 2 s

Iteration: 70

creating matrix for the layer 1
Data = [
1	1.125e+09
2	2.25e+09
3	2.25e+09
4	1.125e+09
1	0	-1.125e+09
2	1	-1.125e+09
3	2	-1.125e+09
];
 Matrix = sparse(Data(:,1), Data(:,2), Data(:,3));
Source = [
1	0	0	-1.80042e+18
2	0	0	-6.09131e+18
3	0	0	-7.53526e+18
4	0	0	-3.24437e+18
];
Source size = 4
GAMG:  Solving for Dx, Initial residual = 0, Final residual = 0, No Iterations 0
GAMG:  Solving for Dz, Initial residual = 0.293682, Final residual = 0.0699451, No Iterations 1
ExecutionTime = 0.14 s  ClockTime = 2 s

Iteration: 71

creating matrix for the layer 1
Data = [
1	1.125e+09
2	2.25e+09
3	2.25e+09
4	1.125e+09
1	0	-1.125e+09
2	1	-1.125e+09
3	2	-1.125e+09
];
 Matrix = sparse(Data(:,1), Data(:,2), Data(:,3));
Source = [
1	0	0	-2.41622e+18
2	0	0	-5.01658e+18
3	0	0	-4.15011e+18
4	0	0	-1.54975e+18
];
Source size = 4
GAMG:  Solving for Dx, Initial residual = 0, Final residual = 0, No Iterations 0
GAMG:  Solving for Dz, Initial residual = 0.144677, Final residual = 0.027185, No Iterations 1
ExecutionTime = 0.14 s  ClockTime = 2 s

Iteration: 72

creating matrix for the layer 1
Data = [
1	1.125e+09
2	2.25e+09
3	2.25e+09
4	1.125e+09
1	0	-1.125e+09
2	1	-1.125e+09
3	2	-1.125e+09
];
 Matrix = sparse(Data(:,1), Data(:,2), Data(:,3));
Source = [
1	0	0	-3.76207e+18
2	0	0	-1.25466e+19
3	0	0	-1.54079e+19
4	0	0	-6.62335e+18
];
Source size = 4
GAMG:  Solving for Dx, Initial residual = 0, Final residual = 0, No Iterations 0
GAMG:  Solving for Dz, Initial residual = 0.284659, Final residual = 0.0679826, No Iterations 1
ExecutionTime = 0.15 s  ClockTime = 2 s

Iteration: 73

creating matrix for the layer 1
Data = [
1	1.125e+09
2	2.25e+09
3	2.25e+09
4	1.125e+09
1	0	-1.125e+09
2	1	-1.125e+09
3	2	-1.125e+09
];
 Matrix = sparse(Data(:,1), Data(:,2), Data(:,3));
Source = [
1	0	0	-5.07228e+18
2	0	0	-1.07808e+19
3	0	0	-9.19078e+18
4	0	0	-3.48229e+18
];
Source size = 4
GAMG:  Solving for Dx, Initial residual = 0, Final residual = 0, No Iterations 0
GAMG:  Solving for Dz, Initial residual = 0.129205, Final residual = 0.0259129, No Iterations 1
ExecutionTime = 0.16 s  ClockTime = 2 s

Iteration: 74

creating matrix for the layer 1
Data = [
1	1.125e+09
2	2.25e+09
3	2.25e+09
4	1.125e+09
1	0	-1.125e+09
2	1	-1.125e+09
3	2	-1.125e+09
];
 Matrix = sparse(Data(:,1), Data(:,2), Data(:,3));
Source = [
1	0	0	-7.84762e+18
2	0	0	-2.58292e+19
3	0	0	-3.15028e+19
4	0	0	-1.35212e+19
];
Source size = 4
GAMG:  Solving for Dx, Initial residual = 0, Final residual = 0, No Iterations 0
GAMG:  Solving for Dz, Initial residual = 0.276091, Final residual = 0.0661302, No Iterations 1
ExecutionTime = 0.16 s  ClockTime = 2 s

Iteration: 75

creating matrix for the layer 1
Data = [
1	1.125e+09
2	2.25e+09
3	2.25e+09
4	1.125e+09
1	0	-1.125e+09
2	1	-1.125e+09
3	2	-1.125e+09
];
 Matrix = sparse(Data(:,1), Data(:,2), Data(:,3));
Source = [
1	0	0	-1.06256e+19
2	0	0	-2.30552e+19
3	0	0	-2.01561e+19
4	0	0	-7.72643e+18
];
Source size = 4
GAMG:  Solving for Dx, Initial residual = 0, Final residual = 0, No Iterations 0
GAMG:  Solving for Dz, Initial residual = 0.114845, Final residual = 0.024741, No Iterations 1
ExecutionTime = 0.16 s  ClockTime = 2 s

Iteration: 76

creating matrix for the layer 1
Data = [
1	1.125e+09
2	2.25e+09
3	2.25e+09
4	1.125e+09
1	0	-1.125e+09
2	1	-1.125e+09
3	2	-1.125e+09
];
 Matrix = sparse(Data(:,1), Data(:,2), Data(:,3));
Source = [
1	0	0	-1.63459e+19
2	0	0	-5.31503e+19
3	0	0	-6.4408e+19
4	0	0	-2.76036e+19
];
Source size = 4
GAMG:  Solving for Dx, Initial residual = 0, Final residual = 0, No Iterations 0
GAMG:  Solving for Dz, Initial residual = 0.26796, Final residual = 0.064382, No Iterations 1
ExecutionTime = 0.16 s  ClockTime = 2 s

Iteration: 77

creating matrix for the layer 1
Data = [
1	1.125e+09
2	2.25e+09
3	2.25e+09
4	1.125e+09
1	0	-1.125e+09
2	1	-1.125e+09
3	2	-1.125e+09
];
 Matrix = sparse(Data(:,1), Data(:,2), Data(:,3));
Source = [
1	0	0	-2.22181e+19
2	0	0	-4.91011e+19
3	0	0	-4.38553e+19
4	0	0	-1.69722e+19
];
Source size = 4
GAMG:  Solving for Dx, Initial residual = 0, Final residual = 0, No Iterations 0
GAMG:  Solving for Dz, Initial residual = 0.101506, Final residual = 0.0236599, No Iterations 1
ExecutionTime = 0.16 s  ClockTime = 2 s

Iteration: 78

creating matrix for the layer 1
Data = [
1	1.125e+09
2	2.25e+09
3	2.25e+09
4	1.125e+09
1	0	-1.125e+09
2	1	-1.125e+09
3	2	-1.125e+09
];
 Matrix = sparse(Data(:,1), Data(:,2), Data(:,3));
Source = [
1	0	0	-3.40034e+19
2	0	0	-1.09332e+20
3	0	0	-1.31686e+20
4	0	0	-5.63574e+19
];
Source size = 4
GAMG:  Solving for Dx, Initial residual = 0, Final residual = 0, No Iterations 0
GAMG:  Solving for Dz, Initial residual = 0.260245, Final residual = 0.0627321, No Iterations 1
ExecutionTime = 0.16 s  ClockTime = 2 s

Iteration: 79

creating matrix for the layer 1
Data = [
1	1.125e+09
2	2.25e+09
3	2.25e+09
4	1.125e+09
1	0	-1.125e+09
2	1	-1.125e+09
3	2	-1.125e+09
];
 Matrix = sparse(Data(:,1), Data(:,2), Data(:,3));
Source = [
1	0	0	-4.63842e+19
2	0	0	-1.04202e+20
3	0	0	-9.47988e+19
4	0	0	-3.69806e+19
];
Source size = 4
GAMG:  Solving for Dx, Initial residual = 0, Final residual = 0, No Iterations 0
GAMG:  Solving for Dz, Initial residual = 0.0891036, Final residual = 0.0226617, No Iterations 1
ExecutionTime = 0.17 s  ClockTime = 2 s

Iteration: 80

creating matrix for the layer 1
Data = [
1	1.125e+09
2	2.25e+09
3	2.25e+09
4	1.125e+09
1	0	-1.125e+09
2	1	-1.125e+09
3	2	-1.125e+09
];
 Matrix = sparse(Data(:,1), Data(:,2), Data(:,3));
Source = [
1	0	0	-7.06569e+19
2	0	0	-2.24835e+20
3	0	0	-2.69255e+20
4	0	0	-1.15077e+20
];
Source size = 4
GAMG:  Solving for Dx, Initial residual = 0, Final residual = 0, No Iterations 0
GAMG:  Solving for Dz, Initial residual = 0.25293, Final residual = 0.0611754, No Iterations 1
ExecutionTime = 0.17 s  ClockTime = 2 s

Iteration: 81

creating matrix for the layer 1
Data = [
1	1.125e+09
2	2.25e+09
3	2.25e+09
4	1.125e+09
1	0	-1.125e+09
2	1	-1.125e+09
3	2	-1.125e+09
];
 Matrix = sparse(Data(:,1), Data(:,2), Data(:,3));
Source = [
1	0	0	-9.67011e+19
2	0	0	-2.20466e+20
3	0	0	-2.03805e+20
4	0	0	-8.00395e+19
];
Source size = 4
GAMG:  Solving for Dx, Initial residual = 0, Final residual = 0, No Iterations 0
GAMG:  Solving for Dz, Initial residual = 0.081324, Final residual = 0.021739, No Iterations 1
ExecutionTime = 0.17 s  ClockTime = 2 s

Iteration: 82

creating matrix for the layer 1
Data = [
1	1.125e+09
2	2.25e+09
3	2.25e+09
4	1.125e+09
1	0	-1.125e+09
2	1	-1.125e+09
3	2	-1.125e+09
];
 Matrix = sparse(Data(:,1), Data(:,2), Data(:,3));
Source = [
1	0	0	-1.46679e+20
2	0	0	-4.6226e+20
3	0	0	-5.50596e+20
4	0	0	-2.35015e+20
];
Source size = 4
GAMG:  Solving for Dx, Initial residual = 0, Final residual = 0, No Iterations 0
GAMG:  Solving for Dz, Initial residual = 0.245996, Final residual = 0.0597067, No Iterations 1
ExecutionTime = 0.17 s  ClockTime = 2 s

Iteration: 83

creating matrix for the layer 1
Data = [
1	1.125e+09
2	2.25e+09
3	2.25e+09
4	1.125e+09
1	0	-1.125e+09
2	1	-1.125e+09
3	2	-1.125e+09
];
 Matrix = sparse(Data(:,1), Data(:,2), Data(:,3));
Source = [
1	0	0	-2.01357e+20
2	0	0	-4.65224e+20
3	0	0	-4.36136e+20
4	0	0	-1.7227e+20
];
Source size = 4
GAMG:  Solving for Dx, Initial residual = 0, Final residual = 0, No Iterations 0
GAMG:  Solving for Dz, Initial residual = 0.0786631, Final residual = 0.0208853, No Iterations 1
ExecutionTime = 0.17 s  ClockTime = 2 s

Iteration: 84

creating matrix for the layer 1
Data = [
1	1.125e+09
2	2.25e+09
3	2.25e+09
4	1.125e+09
1	0	-1.125e+09
2	1	-1.125e+09
3	2	-1.125e+09
];
 Matrix = sparse(Data(:,1), Data(:,2), Data(:,3));
Source = [
1	0	0	-3.04239e+20
2	0	0	-9.50248e+20
3	0	0	-1.12606e+21
4	0	0	-4.80045e+20
];
Source size = 4
GAMG:  Solving for Dx, Initial residual = 0, Final residual = 0, No Iterations 0
GAMG:  Solving for Dz, Initial residual = 0.239426, Final residual = 0.0583213, No Iterations 1
ExecutionTime = 0.17 s  ClockTime = 2 s

Iteration: 85

creating matrix for the layer 1
Data = [
1	1.125e+09
2	2.25e+09
3	2.25e+09
4	1.125e+09
1	0	-1.125e+09
2	1	-1.125e+09
3	2	-1.125e+09
];
 Matrix = sparse(Data(:,1), Data(:,2), Data(:,3));
Source = [
1	0	0	-4.18832e+20
2	0	0	-9.79451e+20
3	0	0	-9.2965e+20
4	0	0	-3.6903e+20
];
Source size = 4
GAMG:  Solving for Dx, Initial residual = 0, Final residual = 0, No Iterations 0
GAMG:  Solving for Dz, Initial residual = 0.0761878, Final residual = 0.0200947, No Iterations 1
ExecutionTime = 0.17 s  ClockTime = 2 s

Iteration: 86

creating matrix for the layer 1
Data = [
1	1.125e+09
2	2.25e+09
3	2.25e+09
4	1.125e+09
1	0	-1.125e+09
2	1	-1.125e+09
3	2	-1.125e+09
];
 Matrix = sparse(Data(:,1), Data(:,2), Data(:,3));
Source = [
1	0	0	-6.30583e+20
2	0	0	-1.95315e+21
3	0	0	-2.30332e+21
4	0	0	-9.80755e+20
];
Source size = 4
GAMG:  Solving for Dx, Initial residual = 0, Final residual = 0, No Iterations 0
GAMG:  Solving for Dz, Initial residual = 0.233204, Final residual = 0.0570146, No Iterations 1
ExecutionTime = 0.17 s  ClockTime = 2 s

Iteration: 87

creating matrix for the layer 1
Data = [
1	1.125e+09
2	2.25e+09
3	2.25e+09
4	1.125e+09
1	0	-1.125e+09
2	1	-1.125e+09
3	2	-1.125e+09
];
 Matrix = sparse(Data(:,1), Data(:,2), Data(:,3));
Source = [
1	0	0	-8.70376e+20
2	0	0	-2.05792e+21
3	0	0	-1.97489e+21
4	0	0	-7.87345e+20
];
Source size = 4
GAMG:  Solving for Dx, Initial residual = 0, Final residual = 0, No Iterations 0
GAMG:  Solving for Dz, Initial residual = 0.0738835, Final residual = 0.0193619, No Iterations 1
ExecutionTime = 0.17 s  ClockTime = 2 s

Iteration: 88

creating matrix for the layer 1
Data = [
1	1.125e+09
2	2.25e+09
3	2.25e+09
4	1.125e+09
1	0	-1.125e+09
2	1	-1.125e+09
3	2	-1.125e+09
];
 Matrix = sparse(Data(:,1), Data(:,2), Data(:,3));
Source = [
1	0	0	-1.30614e+21
2	0	0	-4.0142e+21
3	0	0	-4.71225e+21
4	0	0	-2.00419e+21
];
Source size = 4
GAMG:  Solving for Dx, Initial residual = 0, Final residual = 0, No Iterations 0
GAMG:  Solving for Dz, Initial residual = 0.227314, Final residual = 0.0557823, No Iterations 1
ExecutionTime = 0.18 s  ClockTime = 2 s

Iteration: 89

creating matrix for the layer 1
Data = [
1	1.125e+09
2	2.25e+09
3	2.25e+09
4	1.125e+09
1	0	-1.125e+09
2	1	-1.125e+09
3	2	-1.125e+09
];
 Matrix = sparse(Data(:,1), Data(:,2), Data(:,3));
Source = [
1	0	0	-1.80724e+21
2	0	0	-4.31622e+21
3	0	0	-4.183e+21
4	0	0	-1.67402e+21
];
Source size = 4
GAMG:  Solving for Dx, Initial residual = 0, Final residual = 0, No Iterations 0
GAMG:  Solving for Dz, Initial residual = 0.0717371, Final residual = 0.0186823, No Iterations 1
ExecutionTime = 0.18 s  ClockTime = 2 s

Iteration: 90

creating matrix for the layer 1
Data = [
1	1.125e+09
2	2.25e+09
3	2.25e+09
4	1.125e+09
1	0	-1.125e+09
2	1	-1.125e+09
3	2	-1.125e+09
];
 Matrix = sparse(Data(:,1), Data(:,2), Data(:,3));
Source = [
1	0	0	-2.70393e+21
2	0	0	-8.24978e+21
3	0	0	-9.64246e+21
4	0	0	-4.09661e+21
];
Source size = 4
GAMG:  Solving for Dx, Initial residual = 0, Final residual = 0, No Iterations 0
GAMG:  Solving for Dz, Initial residual = 0.22174, Final residual = 0.0546204, No Iterations 1
ExecutionTime = 0.18 s  ClockTime = 2 s

Iteration: 91

creating matrix for the layer 1
Data = [
1	1.125e+09
2	2.25e+09
3	2.25e+09
4	1.125e+09
1	0	-1.125e+09
2	1	-1.125e+09
3	2	-1.125e+09
];
 Matrix = sparse(Data(:,1), Data(:,2), Data(:,3));
Source = [
1	0	0	-3.74983e+21
2	0	0	-9.03853e+21
3	0	0	-8.83723e+21
4	0	0	-3.54852e+21
];
Source size = 4
GAMG:  Solving for Dx, Initial residual = 0, Final residual = 0, No Iterations 0
GAMG:  Solving for Dz, Initial residual = 0.0697367, Final residual = 0.0180513, No Iterations 1
ExecutionTime = 0.18 s  ClockTime = 2 s

Iteration: 92

creating matrix for the layer 1
Data = [
1	1.125e+09
2	2.25e+09
3	2.25e+09
4	1.125e+09
1	0	-1.125e+09
2	1	-1.125e+09
3	2	-1.125e+09
];
 Matrix = sparse(Data(:,1), Data(:,2), Data(:,3));
Source = [
1	0	0	-5.59483e+21
2	0	0	-1.69542e+22
3	0	0	-1.97351e+22
4	0	0	-8.37573e+21
];
Source size = 4
GAMG:  Solving for Dx, Initial residual = 0, Final residual = 0, No Iterations 0
GAMG:  Solving for Dz, Initial residual = 0.216466, Final residual = 0.0535249, No Iterations 1
ExecutionTime = 0.18 s  ClockTime = 2 s

Iteration: 93

creating matrix for the layer 1
Data = [
1	1.125e+09
2	2.25e+09
3	2.25e+09
4	1.125e+09
1	0	-1.125e+09
2	1	-1.125e+09
3	2	-1.125e+09
];
 Matrix = sparse(Data(:,1), Data(:,2), Data(:,3));
Source = [
1	0	0	-7.77547e+21
2	0	0	-1.89011e+22
3	0	0	-1.86279e+22
4	0	0	-7.50225e+21
];
Source size = 4
GAMG:  Solving for Dx, Initial residual = 0, Final residual = 0, No Iterations 0
GAMG:  Solving for Dz, Initial residual = 0.0678713, Final residual = 0.0177505, No Iterations 1
ExecutionTime = 0.18 s  ClockTime = 2 s

Iteration: 94

creating matrix for the layer 1
Data = [
1	1.125e+09
2	2.25e+09
3	2.25e+09
4	1.125e+09
1	0	-1.125e+09
2	1	-1.125e+09
3	2	-1.125e+09
];
 Matrix = sparse(Data(:,1), Data(:,2), Data(:,3));
Source = [
1	0	0	-1.15716e+22
2	0	0	-3.48431e+22
3	0	0	-4.04008e+22
4	0	0	-1.71292e+22
];
Source size = 4
GAMG:  Solving for Dx, Initial residual = 0, Final residual = 0, No Iterations 0
GAMG:  Solving for Dz, Initial residual = 0.211479, Final residual = 0.0524923, No Iterations 1
ExecutionTime = 0.19 s  ClockTime = 2 s

Iteration: 95

creating matrix for the layer 1
Data = [
1	1.125e+09
2	2.25e+09
3	2.25e+09
4	1.125e+09
1	0	-1.125e+09
2	1	-1.125e+09
3	2	-1.125e+09
];
 Matrix = sparse(Data(:,1), Data(:,2), Data(:,3));
Source = [
1	0	0	-1.61137e+22
2	0	0	-3.94765e+22
3	0	0	-3.91874e+22
4	0	0	-1.58246e+22
];
Source size = 4
GAMG:  Solving for Dx, Initial residual = 0, Final residual = 0, No Iterations 0
GAMG:  Solving for Dz, Initial residual = 0.0661309, Final residual = 0.0188822, No Iterations 1
ExecutionTime = 0.19 s  ClockTime = 2 s

Iteration: 96

creating matrix for the layer 1
Data = [
1	1.125e+09
2	2.25e+09
3	2.25e+09
4	1.125e+09
1	0	-1.125e+09
2	1	-1.125e+09
3	2	-1.125e+09
];
 Matrix = sparse(Data(:,1), Data(:,2), Data(:,3));
Source = [
1	0	0	-2.3924e+22
2	0	0	-7.16089e+22
3	0	0	-8.27258e+22
4	0	0	-3.50408e+22
];
Source size = 4
GAMG:  Solving for Dx, Initial residual = 0, Final residual = 0, No Iterations 0
GAMG:  Solving for Dz, Initial residual = 0.206764, Final residual = 0.051519, No Iterations 1
ExecutionTime = 0.19 s  ClockTime = 2 s

Iteration: 97

creating matrix for the layer 1
Data = [
1	1.125e+09
2	2.25e+09
3	2.25e+09
4	1.125e+09
1	0	-1.125e+09
2	1	-1.125e+09
3	2	-1.125e+09
];
 Matrix = sparse(Data(:,1), Data(:,2), Data(:,3));
Source = [
1	0	0	-3.33768e+22
2	0	0	-8.23585e+22
3	0	0	-8.22926e+22
4	0	0	-3.33109e+22
];
Source size = 4
GAMG:  Solving for Dx, Initial residual = 0, Final residual = 0, No Iterations 0
GAMG:  Solving for Dz, Initial residual = 0.0666599, Final residual = 0.0199409, No Iterations 1
ExecutionTime = 0.19 s  ClockTime = 2 s

Iteration: 98

creating matrix for the layer 1
Data = [
1	1.125e+09
2	2.25e+09
3	2.25e+09
4	1.125e+09
1	0	-1.125e+09
2	1	-1.125e+09
3	2	-1.125e+09
];
 Matrix = sparse(Data(:,1), Data(:,2), Data(:,3));
Source = [
1	0	0	-4.9446e+22
2	0	0	-1.47176e+23
3	0	0	-1.69432e+23
4	0	0	-7.17021e+22
];
Source size = 4
GAMG:  Solving for Dx, Initial residual = 0, Final residual = 0, No Iterations 0
GAMG:  Solving for Dz, Initial residual = 0.202308, Final residual = 0.0506017, No Iterations 1
ExecutionTime = 0.19 s  ClockTime = 2 s

Iteration: 99

creating matrix for the layer 1
Data = [
1	1.125e+09
2	2.25e+09
3	2.25e+09
4	1.125e+09
1	0	-1.125e+09
2	1	-1.125e+09
3	2	-1.125e+09
];
 Matrix = sparse(Data(:,1), Data(:,2), Data(:,3));
Source = [
1	0	0	-6.91034e+22
2	0	0	-1.71651e+23
3	0	0	-1.72541e+23
4	0	0	-6.99929e+22
];
Source size = 4
GAMG:  Solving for Dx, Initial residual = 0, Final residual = 0, No Iterations 0
GAMG:  Solving for Dz, Initial residual = 0.0676734, Final residual = 0.0209319, No Iterations 1
ExecutionTime = 0.19 s  ClockTime = 2 s

Iteration: 100

creating matrix for the layer 1
Data = [
1	1.125e+09
2	2.25e+09
3	2.25e+09
4	1.125e+09
1	0	-1.125e+09
2	1	-1.125e+09
3	2	-1.125e+09
];
 Matrix = sparse(Data(:,1), Data(:,2), Data(:,3));
Source = [
1	0	0	-1.02165e+23
2	0	0	-3.02505e+23
3	0	0	-3.47101e+23
4	0	0	-1.46762e+23
];
Source size = 4
GAMG:  Solving for Dx, Initial residual = 0, Final residual = 0, No Iterations 0
GAMG:  Solving for Dz, Initial residual = 0.198098, Final residual = 0.0497374, No Iterations 1
ExecutionTime = 0.19 s  ClockTime = 2 s

Iteration: 101

creating matrix for the layer 1
Data = [
1	1.125e+09
2	2.25e+09
3	2.25e+09
4	1.125e+09
1	0	-1.125e+09
2	1	-1.125e+09
3	2	-1.125e+09
];
 Matrix = sparse(Data(:,1), Data(:,2), Data(:,3));
Source = [
1	0	0	-1.43015e+23
2	0	0	-3.57437e+23
3	0	0	-3.61254e+23
4	0	0	-1.46832e+23
];
Source size = 4
GAMG:  Solving for Dx, Initial residual = 0, Final residual = 0, No Iterations 0
GAMG:  Solving for Dz, Initial residual = 0.0686184, Final residual = 0.0218596, No Iterations 1
ExecutionTime = 0.2 s  ClockTime = 2 s

Iteration: 102

creating matrix for the layer 1
Data = [
1	1.125e+09
2	2.25e+09
3	2.25e+09
4	1.125e+09
1	0	-1.125e+09
2	1	-1.125e+09
3	2	-1.125e+09
];
 Matrix = sparse(Data(:,1), Data(:,2), Data(:,3));
Source = [
1	0	0	-2.11041e+23
2	0	0	-6.2181e+23
3	0	0	-7.11251e+23
4	0	0	-3.00481e+23
];
Source size = 4
GAMG:  Solving for Dx, Initial residual = 0, Final residual = 0, No Iterations 0
GAMG:  Solving for Dz, Initial residual = 0.194121, Final residual = 0.0489231, No Iterations 1
ExecutionTime = 0.2 s  ClockTime = 2 s

Iteration: 103

creating matrix for the layer 1
Data = [
1	1.125e+09
2	2.25e+09
3	2.25e+09
4	1.125e+09
1	0	-1.125e+09
2	1	-1.125e+09
3	2	-1.125e+09
];
 Matrix = sparse(Data(:,1), Data(:,2), Data(:,3));
Source = [
1	0	0	-2.95876e+23
2	0	0	-7.43707e+23
3	0	0	-7.55413e+23
4	0	0	-3.07582e+23
];
Source size = 4
GAMG:  Solving for Dx, Initial residual = 0, Final residual = 0, No Iterations 0
GAMG:  Solving for Dz, Initial residual = 0.0694998, Final residual = 0.0227283, No Iterations 1
ExecutionTime = 0.2 s  ClockTime = 2 s

Iteration: 104

creating matrix for the layer 1
Data = [
1	1.125e+09
2	2.25e+09
3	2.25e+09
4	1.125e+09
1	0	-1.125e+09
2	1	-1.125e+09
3	2	-1.125e+09
];
 Matrix = sparse(Data(:,1), Data(:,2), Data(:,3));
Source = [
1	0	0	-4.35845e+23
2	0	0	-1.27826e+24
3	0	0	-1.45779e+24
4	0	0	-6.15382e+23
];
Source size = 4
GAMG:  Solving for Dx, Initial residual = 0, Final residual = 0, No Iterations 0
GAMG:  Solving for Dz, Initial residual = 0.190365, Final residual = 0.048156, No Iterations 1
ExecutionTime = 0.2 s  ClockTime = 2 s

Iteration: 105

creating matrix for the layer 1
Data = [
1	1.125e+09
2	2.25e+09
3	2.25e+09
4	1.125e+09
1	0	-1.125e+09
2	1	-1.125e+09
3	2	-1.125e+09
];
 Matrix = sparse(Data(:,1), Data(:,2), Data(:,3));
Source = [
1	0	0	-6.11928e+23
2	0	0	-1.54629e+24
3	0	0	-1.57784e+24
4	0	0	-6.43486e+23
];
Source size = 4
GAMG:  Solving for Dx, Initial residual = 0, Final residual = 0, No Iterations 0
GAMG:  Solving for Dz, Initial residual = 0.0703224, Final residual = 0.0235421, No Iterations 1
ExecutionTime = 0.2 s  ClockTime = 2 s

Iteration: 106

creating matrix for the layer 1
Data = [
1	1.125e+09
2	2.25e+09
3	2.25e+09
4	1.125e+09
1	0	-1.125e+09
2	1	-1.125e+09
3	2	-1.125e+09
];
 Matrix = sparse(Data(:,1), Data(:,2), Data(:,3));
Source = [
1	0	0	-8.99942e+23
2	0	0	-2.62795e+24
3	0	0	-2.98866e+24
4	0	0	-1.26065e+24
];
Source size = 4
GAMG:  Solving for Dx, Initial residual = 0, Final residual = 0, No Iterations 0
GAMG:  Solving for Dz, Initial residual = 0.18682, Final residual = 0.0474334, No Iterations 1
ExecutionTime = 0.2 s  ClockTime = 2 s

Iteration: 107

creating matrix for the layer 1
Data = [
1	1.125e+09
2	2.25e+09
3	2.25e+09
4	1.125e+09
1	0	-1.125e+09
2	1	-1.125e+09
3	2	-1.125e+09
];
 Matrix = sparse(Data(:,1), Data(:,2), Data(:,3));
Source = [
1	0	0	-1.26523e+24
2	0	0	-3.21287e+24
3	0	0	-3.2923e+24
4	0	0	-1.34466e+24
];
Source size = 4
GAMG:  Solving for Dx, Initial residual = 0, Final residual = 0, No Iterations 0
GAMG:  Solving for Dz, Initial residual = 0.0710904, Final residual = 0.0243044, No Iterations 1
ExecutionTime = 0.2 s  ClockTime = 2 s

Iteration: 108

creating matrix for the layer 1
Data = [
1	1.125e+09
2	2.25e+09
3	2.25e+09
4	1.125e+09
1	0	-1.125e+09
2	1	-1.125e+09
3	2	-1.125e+09
];
 Matrix = sparse(Data(:,1), Data(:,2), Data(:,3));
Source = [
1	0	0	-1.8579e+24
2	0	0	-5.40326e+24
3	0	0	-6.1286e+24
4	0	0	-2.58324e+24
];
Source size = 4
GAMG:  Solving for Dx, Initial residual = 0, Final residual = 0, No Iterations 0
GAMG:  Solving for Dz, Initial residual = 0.183474, Final residual = 0.0467528, No Iterations 1
ExecutionTime = 0.21 s  ClockTime = 2 s

Iteration: 109

creating matrix for the layer 1
Data = [
1	1.125e+09
2	2.25e+09
3	2.25e+09
4	1.125e+09
1	0	-1.125e+09
2	1	-1.125e+09
3	2	-1.125e+09
];
 Matrix = sparse(Data(:,1), Data(:,2), Data(:,3));
Source = [
1	0	0	-2.61534e+24
2	0	0	-6.67171e+24
3	0	0	-6.86328e+24
4	0	0	-2.8069e+24
];
Source size = 4
GAMG:  Solving for Dx, Initial residual = 0, Final residual = 0, No Iterations 0
GAMG:  Solving for Dz, Initial residual = 0.0726938, Final residual = 0.0250188, No Iterations 1
ExecutionTime = 0.21 s  ClockTime = 3 s

Iteration: 110

creating matrix for the layer 1
Data = [
1	1.125e+09
2	2.25e+09
3	2.25e+09
4	1.125e+09
1	0	-1.125e+09
2	1	-1.125e+09
3	2	-1.125e+09
];
 Matrix = sparse(Data(:,1), Data(:,2), Data(:,3));
Source = [
1	0	0	-3.83502e+24
2	0	0	-1.11106e+25
3	0	0	-1.25704e+25
4	0	0	-5.29487e+24
];
Source size = 4
GAMG:  Solving for Dx, Initial residual = 0, Final residual = 0, No Iterations 0
GAMG:  Solving for Dz, Initial residual = 0.180316, Final residual = 0.0461119, No Iterations 1
ExecutionTime = 0.21 s  ClockTime = 3 s

Iteration: 111

creating matrix for the layer 1
Data = [
1	1.125e+09
2	2.25e+09
3	2.25e+09
4	1.125e+09
1	0	-1.125e+09
2	1	-1.125e+09
3	2	-1.125e+09
];
 Matrix = sparse(Data(:,1), Data(:,2), Data(:,3));
Source = [
1	0	0	-5.40491e+24
2	0	0	-1.38467e+25
3	0	0	-1.42955e+25
4	0	0	-5.85367e+24
];
Source size = 4
GAMG:  Solving for Dx, Initial residual = 0, Final residual = 0, No Iterations 0
GAMG:  Solving for Dz, Initial residual = 0.0762166, Final residual = 0.0256884, No Iterations 1
ExecutionTime = 0.22 s  ClockTime = 3 s

Iteration: 112

creating matrix for the layer 1
Data = [
1	1.125e+09
2	2.25e+09
3	2.25e+09
4	1.125e+09
1	0	-1.125e+09
2	1	-1.125e+09
3	2	-1.125e+09
];
 Matrix = sparse(Data(:,1), Data(:,2), Data(:,3));
Source = [
1	0	0	-7.91508e+24
2	0	0	-2.28488e+25
3	0	0	-2.57894e+25
4	0	0	-1.08558e+25
];
Source size = 4
GAMG:  Solving for Dx, Initial residual = 0, Final residual = 0, No Iterations 0
GAMG:  Solving for Dz, Initial residual = 0.177337, Final residual = 0.0455083, No Iterations 1
ExecutionTime = 0.22 s  ClockTime = 3 s

Iteration: 113

creating matrix for the layer 1
Data = [
1	1.125e+09
2	2.25e+09
3	2.25e+09
4	1.125e+09
1	0	-1.125e+09
2	1	-1.125e+09
3	2	-1.125e+09
];
 Matrix = sparse(Data(:,1), Data(:,2), Data(:,3));
Source = [
1	0	0	-1.11677e+25
2	0	0	-2.8724e+25
3	0	0	-2.97534e+25
4	0	0	-1.21971e+25
];
Source size = 4
GAMG:  Solving for Dx, Initial residual = 0, Final residual = 0, No Iterations 0
GAMG:  Solving for Dz, Initial residual = 0.0795136, Final residual = 0.0263161, No Iterations 1
ExecutionTime = 0.22 s  ClockTime = 3 s

Iteration: 114

creating matrix for the layer 1
Data = [
1	1.125e+09
2	2.25e+09
3	2.25e+09
4	1.125e+09
1	0	-1.125e+09
2	1	-1.125e+09
3	2	-1.125e+09
];
 Matrix = sparse(Data(:,1), Data(:,2), Data(:,3));
Source = [
1	0	0	-1.63341e+25
2	0	0	-4.69929e+25
3	0	0	-5.29217e+25
4	0	0	-2.22629e+25
];
Source size = 4
GAMG:  Solving for Dx, Initial residual = 0, Final residual = 0, No Iterations 0
GAMG:  Solving for Dz, Initial residual = 0.174527, Final residual = 0.0449401, No Iterations 1
ExecutionTime = 0.22 s  ClockTime = 3 s

Iteration: 115

creating matrix for the layer 1
Data = [
1	1.125e+09
2	2.25e+09
3	2.25e+09
4	1.125e+09
1	0	-1.125e+09
2	1	-1.125e+09
3	2	-1.125e+09
];
 Matrix = sparse(Data(:,1), Data(:,2), Data(:,3));
Source = [
1	0	0	-2.30706e+25
2	0	0	-5.9559e+25
3	0	0	-6.18829e+25
4	0	0	-2.53946e+25
];
Source size = 4
GAMG:  Solving for Dx, Initial residual = 0, Final residual = 0, No Iterations 0
GAMG:  Solving for Dz, Initial residual = 0.0826, Final residual = 0.0269046, No Iterations 1
ExecutionTime = 0.22 s  ClockTime = 3 s

Iteration: 116

creating matrix for the layer 1
Data = [
1	1.125e+09
2	2.25e+09
3	2.25e+09
4	1.125e+09
1	0	-1.125e+09
2	1	-1.125e+09
3	2	-1.125e+09
];
 Matrix = sparse(Data(:,1), Data(:,2), Data(:,3));
Source = [
1	0	0	-3.37047e+25
2	0	0	-9.666e+25
3	0	0	-1.08623e+26
4	0	0	-4.5668e+25
];
Source size = 4
GAMG:  Solving for Dx, Initial residual = 0, Final residual = 0, No Iterations 0
GAMG:  Solving for Dz, Initial residual = 0.171877, Final residual = 0.0444051, No Iterations 1
ExecutionTime = 0.22 s  ClockTime = 3 s

Iteration: 117

creating matrix for the layer 1
Data = [
1	1.125e+09
2	2.25e+09
3	2.25e+09
4	1.125e+09
1	0	-1.125e+09
2	1	-1.125e+09
3	2	-1.125e+09
];
 Matrix = sparse(Data(:,1), Data(:,2), Data(:,3));
Source = [
1	0	0	-4.76523e+25
2	0	0	-1.23445e+26
3	0	0	-1.28627e+26
4	0	0	-5.28342e+25
];
Source size = 4
GAMG:  Solving for Dx, Initial residual = 0, Final residual = 0, No Iterations 0
GAMG:  Solving for Dz, Initial residual = 0.0854898, Final residual = 0.0274565, No Iterations 1
ExecutionTime = 0.22 s  ClockTime = 3 s

Iteration: 118

creating matrix for the layer 1
Data = [
1	1.125e+09
2	2.25e+09
3	2.25e+09
4	1.125e+09
1	0	-1.125e+09
2	1	-1.125e+09
3	2	-1.125e+09
];
 Matrix = sparse(Data(:,1), Data(:,2), Data(:,3));
Source = [
1	0	0	-6.95424e+25
2	0	0	-1.98841e+26
3	0	0	-2.23001e+26
4	0	0	-9.37024e+25
];
Source size = 4
GAMG:  Solving for Dx, Initial residual = 0, Final residual = 0, No Iterations 0
GAMG:  Solving for Dz, Initial residual = 0.169378, Final residual = 0.0439015, No Iterations 1
ExecutionTime = 0.22 s  ClockTime = 3 s

Iteration: 119

creating matrix for the layer 1
Data = [
1	1.125e+09
2	2.25e+09
3	2.25e+09
4	1.125e+09
1	0	-1.125e+09
2	1	-1.125e+09
3	2	-1.125e+09
];
 Matrix = sparse(Data(:,1), Data(:,2), Data(:,3));
Source = [
1	0	0	-9.84118e+25
2	0	0	-2.55762e+26
3	0	0	-2.67201e+26
4	0	0	-1.09852e+26
];
Source size = 4
GAMG:  Solving for Dx, Initial residual = 0, Final residual = 0, No Iterations 0
GAMG:  Solving for Dz, Initial residual = 0.0881963, Final residual = 0.0279741, No Iterations 1
ExecutionTime = 0.23 s  ClockTime = 3 s

Iteration: 120

creating matrix for the layer 1
Data = [
1	1.125e+09
2	2.25e+09
3	2.25e+09
4	1.125e+09
1	0	-1.125e+09
2	1	-1.125e+09
3	2	-1.125e+09
];
 Matrix = sparse(Data(:,1), Data(:,2), Data(:,3));
Source = [
1	0	0	-1.43475e+26
2	0	0	-4.09083e+26
3	0	0	-4.57915e+26
4	0	0	-1.92307e+26
];
Source size = 4
GAMG:  Solving for Dx, Initial residual = 0, Final residual = 0, No Iterations 0
GAMG:  Solving for Dz, Initial residual = 0.167023, Final residual = 0.0434275, No Iterations 1
ExecutionTime = 0.23 s  ClockTime = 3 s

Iteration: 121

creating matrix for the layer 1
Data = [
1	1.125e+09
2	2.25e+09
3	2.25e+09
4	1.125e+09
1	0	-1.125e+09
2	1	-1.125e+09
3	2	-1.125e+09
];
 Matrix = sparse(Data(:,1), Data(:,2), Data(:,3));
Source = [
1	0	0	-2.03214e+26
2	0	0	-5.29724e+26
3	0	0	-5.54774e+26
4	0	0	-2.28264e+26
];
Source size = 4
GAMG:  Solving for Dx, Initial residual = 0, Final residual = 0, No Iterations 0
GAMG:  Solving for Dz, Initial residual = 0.0907317, Final residual = 0.0284596, No Iterations 1
ExecutionTime = 0.23 s  ClockTime = 3 s

Iteration: 122

creating matrix for the layer 1
Data = [
1	1.125e+09
2	2.25e+09
3	2.25e+09
4	1.125e+09
1	0	-1.125e+09
2	1	-1.125e+09
3	2	-1.125e+09
];
 Matrix = sparse(Data(:,1), Data(:,2), Data(:,3));
Source = [
1	0	0	-2.95989e+26
2	0	0	-8.41708e+26
3	0	0	-9.40485e+26
4	0	0	-3.94766e+26
];
Source size = 4
GAMG:  Solving for Dx, Initial residual = 0, Final residual = 0, No Iterations 0
GAMG:  Solving for Dz, Initial residual = 0.164803, Final residual = 0.0429813, No Iterations 1
ExecutionTime = 0.23 s  ClockTime = 3 s

Iteration: 123

creating matrix for the layer 1
Data = [
1	1.125e+09
2	2.25e+09
3	2.25e+09
4	1.125e+09
1	0	-1.125e+09
2	1	-1.125e+09
3	2	-1.125e+09
];
 Matrix = sparse(Data(:,1), Data(:,2), Data(:,3));
Source = [
1	0	0	-4.19574e+26
2	0	0	-1.0968e+27
3	0	0	-1.15128e+27
4	0	0	-4.74057e+26
];
Source size = 4
GAMG:  Solving for Dx, Initial residual = 0, Final residual = 0, No Iterations 0
GAMG:  Solving for Dz, Initial residual = 0.0931071, Final residual = 0.0289151, No Iterations 1
ExecutionTime = 0.23 s  ClockTime = 3 s

Iteration: 124

creating matrix for the layer 1
Data = [
1	1.125e+09
2	2.25e+09
3	2.25e+09
4	1.125e+09
1	0	-1.125e+09
2	1	-1.125e+09
3	2	-1.125e+09
];
 Matrix = sparse(Data(:,1), Data(:,2), Data(:,3));
Source = [
1	0	0	-6.10589e+26
2	0	0	-1.73203e+27
3	0	0	-1.93199e+27
4	0	0	-8.10556e+26
];
Source size = 4
GAMG:  Solving for Dx, Initial residual = 0, Final residual = 0, No Iterations 0
GAMG:  Solving for Dz, Initial residual = 0.162711, Final residual = 0.0425614, No Iterations 1
ExecutionTime = 0.23 s  ClockTime = 3 s

Iteration: 125

creating matrix for the layer 1
Data = [
1	1.125e+09
2	2.25e+09
3	2.25e+09
4	1.125e+09
1	0	-1.125e+09
2	1	-1.125e+09
3	2	-1.125e+09
];
 Matrix = sparse(Data(:,1), Data(:,2), Data(:,3));
Source = [
1	0	0	-8.66202e+26
2	0	0	-2.27029e+27
3	0	0	-2.38812e+27
4	0	0	-9.84026e+26
];
Source size = 4
GAMG:  Solving for Dx, Initial residual = 0, Final residual = 0, No Iterations 0
GAMG:  Solving for Dz, Initial residual = 0.095333, Final residual = 0.0293424, No Iterations 1
ExecutionTime = 0.23 s  ClockTime = 3 s

Iteration: 126

creating matrix for the layer 1
Data = [
1	1.125e+09
2	2.25e+09
3	2.25e+09
4	1.125e+09
1	0	-1.125e+09
2	1	-1.125e+09
3	2	-1.125e+09
];
 Matrix = sparse(Data(:,1), Data(:,2), Data(:,3));
Source = [
1	0	0	-1.25951e+27
2	0	0	-3.56444e+27
3	0	0	-3.96957e+27
4	0	0	-1.66464e+27
];
Source size = 4
GAMG:  Solving for Dx, Initial residual = 0, Final residual = 0, No Iterations 0
GAMG:  Solving for Dz, Initial residual = 0.160739, Final residual = 0.0421662, No Iterations 1
ExecutionTime = 0.23 s  ClockTime = 3 s

Iteration: 127

creating matrix for the layer 1
Data = [
1	1.125e+09
2	2.25e+09
3	2.25e+09
4	1.125e+09
1	0	-1.125e+09
2	1	-1.125e+09
3	2	-1.125e+09
];
 Matrix = sparse(Data(:,1), Data(:,2), Data(:,3));
Source = [
1	0	0	-1.78809e+27
2	0	0	-4.69808e+27
3	0	0	-4.95165e+27
4	0	0	-2.04165e+27
];
Source size = 4
GAMG:  Solving for Dx, Initial residual = 0, Final residual = 0, No Iterations 0
GAMG:  Solving for Dz, Initial residual = 0.0974194, Final residual = 0.0297434, No Iterations 1
ExecutionTime = 0.23 s  ClockTime = 3 s

Iteration: 128

creating matrix for the layer 1
Data = [
1	1.125e+09
2	2.25e+09
3	2.25e+09
4	1.125e+09
1	0	-1.125e+09
2	1	-1.125e+09
3	2	-1.125e+09
];
 Matrix = sparse(Data(:,1), Data(:,2), Data(:,3));
Source = [
1	0	0	-2.59799e+27
2	0	0	-7.33618e+27
3	0	0	-8.15759e+27
4	0	0	-3.4194e+27
];
Source size = 4
GAMG:  Solving for Dx, Initial residual = 0, Final residual = 0, No Iterations 0
GAMG:  Solving for Dz, Initial residual = 0.158882, Final residual = 0.0417944, No Iterations 1
ExecutionTime = 0.23 s  ClockTime = 3 s

Iteration: 129

creating matrix for the layer 1
Data = [
1	1.125e+09
2	2.25e+09
3	2.25e+09
4	1.125e+09
1	0	-1.125e+09
2	1	-1.125e+09
3	2	-1.125e+09
];
 Matrix = sparse(Data(:,1), Data(:,2), Data(:,3));
Source = [
1	0	0	-3.6908e+27
2	0	0	-9.71973e+27
3	0	0	-1.02631e+28
4	0	0	-4.23421e+27
];
Source size = 4
GAMG:  Solving for Dx, Initial residual = 0, Final residual = 0, No Iterations 0
GAMG:  Solving for Dz, Initial residual = 0.0993751, Final residual = 0.0301197, No Iterations 1
ExecutionTime = 0.24 s  ClockTime = 3 s

Iteration: 130

creating matrix for the layer 1
Data = [
1	1.125e+09
2	2.25e+09
3	2.25e+09
4	1.125e+09
1	0	-1.125e+09
2	1	-1.125e+09
3	2	-1.125e+09
];
 Matrix = sparse(Data(:,1), Data(:,2), Data(:,3));
Source = [
1	0	0	-5.35866e+27
2	0	0	-1.51004e+28
3	0	0	-1.67671e+28
4	0	0	-7.02532e+27
];
Source size = 4
GAMG:  Solving for Dx, Initial residual = 0, Final residual = 0, No Iterations 0
GAMG:  Solving for Dz, Initial residual = 0.157133, Final residual = 0.0414445, No Iterations 1
ExecutionTime = 0.24 s  ClockTime = 3 s

Iteration: 131

creating matrix for the layer 1
Data = [
1	1.125e+09
2	2.25e+09
3	2.25e+09
4	1.125e+09
1	0	-1.125e+09
2	1	-1.125e+09
3	2	-1.125e+09
];
 Matrix = sparse(Data(:,1), Data(:,2), Data(:,3));
Source = [
1	0	0	-7.61762e+27
2	0	0	-2.01044e+28
3	0	0	-2.12647e+28
4	0	0	-8.77795e+27
];
Source size = 4
GAMG:  Solving for Dx, Initial residual = 0, Final residual = 0, No Iterations 0
GAMG:  Solving for Dz, Initial residual = 0.101209, Final residual = 0.0304728, No Iterations 1
ExecutionTime = 0.24 s  ClockTime = 3 s

Iteration: 132

creating matrix for the layer 1
Data = [
1	1.125e+09
2	2.25e+09
3	2.25e+09
4	1.125e+09
1	0	-1.125e+09
2	1	-1.125e+09
3	2	-1.125e+09
];
 Matrix = sparse(Data(:,1), Data(:,2), Data(:,3));
Source = [
1	0	0	-1.10525e+28
2	0	0	-3.10849e+28
3	0	0	-3.4469e+28
4	0	0	-1.44367e+28
];
Source size = 4
GAMG:  Solving for Dx, Initial residual = 0, Final residual = 0, No Iterations 0
GAMG:  Solving for Dz, Initial residual = 0.155485, Final residual = 0.0411154, No Iterations 1
ExecutionTime = 0.24 s  ClockTime = 3 s

Iteration: 133

creating matrix for the layer 1
Data = [
1	1.125e+09
2	2.25e+09
3	2.25e+09
4	1.125e+09
1	0	-1.125e+09
2	1	-1.125e+09
3	2	-1.125e+09
];
 Matrix = sparse(Data(:,1), Data(:,2), Data(:,3));
Source = [
1	0	0	-1.57213e+28
2	0	0	-4.15755e+28
3	0	0	-4.40452e+28
4	0	0	-1.8191e+28
];
Source size = 4
GAMG:  Solving for Dx, Initial residual = 0, Final residual = 0, No Iterations 0
GAMG:  Solving for Dz, Initial residual = 0.102928, Final residual = 0.0308043, No Iterations 1
ExecutionTime = 0.24 s  ClockTime = 3 s

Iteration: 134

creating matrix for the layer 1
Data = [
1	1.125e+09
2	2.25e+09
3	2.25e+09
4	1.125e+09
1	0	-1.125e+09
2	1	-1.125e+09
3	2	-1.125e+09
];
 Matrix = sparse(Data(:,1), Data(:,2), Data(:,3));
Source = [
1	0	0	-2.27959e+28
2	0	0	-6.39952e+28
3	0	0	-7.08713e+28
4	0	0	-2.9672e+28
];
Source size = 4
GAMG:  Solving for Dx, Initial residual = 0, Final residual = 0, No Iterations 0
GAMG:  Solving for Dz, Initial residual = 0.153933, Final residual = 0.0408057, No Iterations 1
ExecutionTime = 0.25 s  ClockTime = 3 s

Iteration: 135

creating matrix for the layer 1
Data = [
1	1.125e+09
2	2.25e+09
3	2.25e+09
4	1.125e+09
1	0	-1.125e+09
2	1	-1.125e+09
3	2	-1.125e+09
];
 Matrix = sparse(Data(:,1), Data(:,2), Data(:,3));
Source = [
1	0	0	-3.24437e+28
2	0	0	-8.5961e+28
3	0	0	-9.12031e+28
4	0	0	-3.76858e+28
];
Source size = 4
GAMG:  Solving for Dx, Initial residual = 0, Final residual = 0, No Iterations 0
GAMG:  Solving for Dz, Initial residual = 0.10454, Final residual = 0.0311154, No Iterations 1
ExecutionTime = 0.25 s  ClockTime = 3 s

Iteration: 136

creating matrix for the layer 1
Data = [
1	1.125e+09
2	2.25e+09
3	2.25e+09
4	1.125e+09
1	0	-1.125e+09
2	1	-1.125e+09
3	2	-1.125e+09
];
 Matrix = sparse(Data(:,1), Data(:,2), Data(:,3));
Source = [
1	0	0	-4.70155e+28
2	0	0	-1.3176e+29
3	0	0	-1.45741e+29
4	0	0	-6.09966e+28
];
Source size = 4
GAMG:  Solving for Dx, Initial residual = 0, Final residual = 0, No Iterations 0
GAMG:  Solving for Dz, Initial residual = 0.152472, Final residual = 0.0405143, No Iterations 1
ExecutionTime = 0.25 s  ClockTime = 3 s

Iteration: 137

creating matrix for the layer 1
Data = [
1	1.125e+09
2	2.25e+09
3	2.25e+09
4	1.125e+09
1	0	-1.125e+09
2	1	-1.125e+09
3	2	-1.125e+09
];
 Matrix = sparse(Data(:,1), Data(:,2), Data(:,3));
Source = [
1	0	0	-6.69495e+28
2	0	0	-1.77701e+29
3	0	0	-1.888e+29
4	0	0	-7.80483e+28
];
Source size = 4
GAMG:  Solving for Dx, Initial residual = 0, Final residual = 0, No Iterations 0
GAMG:  Solving for Dz, Initial residual = 0.106053, Final residual = 0.0314075, No Iterations 1
ExecutionTime = 0.25 s  ClockTime = 3 s

Iteration: 138

creating matrix for the layer 1
Data = [
1	1.125e+09
2	2.25e+09
3	2.25e+09
4	1.125e+09
1	0	-1.125e+09
2	1	-1.125e+09
3	2	-1.125e+09
];
 Matrix = sparse(Data(:,1), Data(:,2), Data(:,3));
Source = [
1	0	0	-9.69656e+28
2	0	0	-2.71303e+29
3	0	0	-2.99749e+29
4	0	0	-1.25411e+29
];
Source size = 4
GAMG:  Solving for Dx, Initial residual = 0, Final residual = 0, No Iterations 0
GAMG:  Solving for Dz, Initial residual = 0.151096, Final residual = 0.0402402, No Iterations 1
ExecutionTime = 0.26 s  ClockTime = 3 s

Iteration: 139

creating matrix for the layer 1
Data = [
1	1.125e+09
2	2.25e+09
3	2.25e+09
4	1.125e+09
1	0	-1.125e+09
2	1	-1.125e+09
3	2	-1.125e+09
];
 Matrix = sparse(Data(:,1), Data(:,2), Data(:,3));
Source = [
1	0	0	-1.38147e+29
2	0	0	-3.67288e+29
3	0	0	-3.90735e+29
4	0	0	-1.61594e+29
];
Source size = 4
GAMG:  Solving for Dx, Initial residual = 0, Final residual = 0, No Iterations 0
GAMG:  Solving for Dz, Initial residual = 0.107471, Final residual = 0.0316817, No Iterations 1
ExecutionTime = 0.26 s  ClockTime = 3 s

Iteration: 140

creating matrix for the layer 1
Data = [
1	1.125e+09
2	2.25e+09
3	2.25e+09
4	1.125e+09
1	0	-1.125e+09
2	1	-1.125e+09
3	2	-1.125e+09
];
 Matrix = sparse(Data(:,1), Data(:,2), Data(:,3));
Source = [
1	0	0	-1.9998e+29
2	0	0	-5.58678e+29
3	0	0	-6.16591e+29
4	0	0	-2.57893e+29
];
Source size = 4
GAMG:  Solving for Dx, Initial residual = 0, Final residual = 0, No Iterations 0
GAMG:  Solving for Dz, Initial residual = 0.149801, Final residual = 0.0399824, No Iterations 1
ExecutionTime = 0.26 s  ClockTime = 3 s

Iteration: 141

creating matrix for the layer 1
Data = [
1	1.125e+09
2	2.25e+09
3	2.25e+09
4	1.125e+09
1	0	-1.125e+09
2	1	-1.125e+09
3	2	-1.125e+09
];
 Matrix = sparse(Data(:,1), Data(:,2), Data(:,3));
Source = [
1	0	0	-2.85048e+29
2	0	0	-7.59031e+29
3	0	0	-8.08466e+29
4	0	0	-3.34483e+29
];
Source size = 4
GAMG:  Solving for Dx, Initial residual = 0, Final residual = 0, No Iterations 0
GAMG:  Solving for Dz, Initial residual = 0.108802, Final residual = 0.0319391, No Iterations 1
ExecutionTime = 0.26 s  ClockTime = 3 s

Iteration: 142

creating matrix for the layer 1
Data = [
1	1.125e+09
2	2.25e+09
3	2.25e+09
4	1.125e+09
1	0	-1.125e+09
2	1	-1.125e+09
3	2	-1.125e+09
];
 Matrix = sparse(Data(:,1), Data(:,2), Data(:,3));
Source = [
1	0	0	-4.1243e+29
2	0	0	-1.15054e+30
3	0	0	-1.26852e+30
4	0	0	-5.30407e+29
];
Source size = 4
GAMG:  Solving for Dx, Initial residual = 0, Final residual = 0, No Iterations 0
GAMG:  Solving for Dz, Initial residual = 0.148582, Final residual = 0.0397399, No Iterations 1
ExecutionTime = 0.26 s  ClockTime = 3 s

Iteration: 143

creating matrix for the layer 1
Data = [
1	1.125e+09
2	2.25e+09
3	2.25e+09
4	1.125e+09
1	0	-1.125e+09
2	1	-1.125e+09
3	2	-1.125e+09
];
 Matrix = sparse(Data(:,1), Data(:,2), Data(:,3));
Source = [
1	0	0	-5.88132e+29
2	0	0	-1.56838e+30
3	0	0	-1.67242e+30
4	0	0	-6.92175e+29
];
Source size = 4
GAMG:  Solving for Dx, Initial residual = 0, Final residual = 0, No Iterations 0
GAMG:  Solving for Dz, Initial residual = 0.110051, Final residual = 0.0321809, No Iterations 1
ExecutionTime = 0.26 s  ClockTime = 3 s

Iteration: 144

creating matrix for the layer 1
Data = [
1	1.125e+09
2	2.25e+09
3	2.25e+09
4	1.125e+09
1	0	-1.125e+09
2	1	-1.125e+09
3	2	-1.125e+09
];
 Matrix = sparse(Data(:,1), Data(:,2), Data(:,3));
Source = [
1	0	0	-8.50568e+29
2	0	0	-2.36959e+30
3	0	0	-2.61007e+30
4	0	0	-1.09105e+30
];
Source size = 4
GAMG:  Solving for Dx, Initial residual = 0, Final residual = 0, No Iterations 0
GAMG:  Solving for Dz, Initial residual = 0.147434, Final residual = 0.0395119, No Iterations 1
ExecutionTime = 0.26 s  ClockTime = 3 s

Iteration: 145

creating matrix for the layer 1
Data = [
1	1.125e+09
2	2.25e+09
3	2.25e+09
4	1.125e+09
1	0	-1.125e+09
2	1	-1.125e+09
3	2	-1.125e+09
];
 Matrix = sparse(Data(:,1), Data(:,2), Data(:,3));
Source = [
1	0	0	-1.21343e+30
2	0	0	-3.24032e+30
3	0	0	-3.45894e+30
4	0	0	-1.43205e+30
];
Source size = 4
GAMG:  Solving for Dx, Initial residual = 0, Final residual = 0, No Iterations 0
GAMG:  Solving for Dz, Initial residual = 0.111223, Final residual = 0.0324078, No Iterations 1
ExecutionTime = 0.26 s  ClockTime = 3 s

Iteration: 146

creating matrix for the layer 1
Data = [
1	1.125e+09
2	2.25e+09
3	2.25e+09
4	1.125e+09
1	0	-1.125e+09
2	1	-1.125e+09
3	2	-1.125e+09
];
 Matrix = sparse(Data(:,1), Data(:,2), Data(:,3));
Source = [
1	0	0	-1.75414e+30
2	0	0	-4.88063e+30
3	0	0	-5.37109e+30
4	0	0	-2.2446e+30
];
Source size = 4
GAMG:  Solving for Dx, Initial residual = 0, Final residual = 0, No Iterations 0
GAMG:  Solving for Dz, Initial residual = 0.146354, Final residual = 0.0392974, No Iterations 1
ExecutionTime = 0.26 s  ClockTime = 3 s

Iteration: 147

creating matrix for the layer 1
Data = [
1	1.125e+09
2	2.25e+09
3	2.25e+09
4	1.125e+09
1	0	-1.125e+09
2	1	-1.125e+09
3	2	-1.125e+09
];
 Matrix = sparse(Data(:,1), Data(:,2), Data(:,3));
Source = [
1	0	0	-2.50347e+30
2	0	0	-6.69379e+30
3	0	0	-7.15251e+30
4	0	0	-2.96218e+30
];
Source size = 4
GAMG:  Solving for Dx, Initial residual = 0, Final residual = 0, No Iterations 0
GAMG:  Solving for Dz, Initial residual = 0.112322, Final residual = 0.032621, No Iterations 1
ExecutionTime = 0.26 s  ClockTime = 3 s

Iteration: 148

creating matrix for the layer 1
Data = [
1	1.125e+09
2	2.25e+09
3	2.25e+09
4	1.125e+09
1	0	-1.125e+09
2	1	-1.125e+09
3	2	-1.125e+09
];
 Matrix = sparse(Data(:,1), Data(:,2), Data(:,3));
Source = [
1	0	0	-3.61755e+30
2	0	0	-1.00533e+31
3	0	0	-1.10541e+31
4	0	0	-4.6184e+30
];
Source size = 4
GAMG:  Solving for Dx, Initial residual = 0, Final residual = 0, No Iterations 0
GAMG:  Solving for Dz, Initial residual = 0.145337, Final residual = 0.0390956, No Iterations 1
ExecutionTime = 0.27 s  ClockTime = 3 s

Iteration: 149

creating matrix for the layer 1
Data = [
1	1.125e+09
2	2.25e+09
3	2.25e+09
4	1.125e+09
1	0	-1.125e+09
2	1	-1.125e+09
3	2	-1.125e+09
];
 Matrix = sparse(Data(:,1), Data(:,2), Data(:,3));
Source = [
1	0	0	-5.16481e+30
2	0	0	-1.38264e+31
3	0	0	-1.47876e+31
4	0	0	-6.12603e+30
];
Source size = 4
GAMG:  Solving for Dx, Initial residual = 0, Final residual = 0, No Iterations 0
GAMG:  Solving for Dz, Initial residual = 0.113354, Final residual = 0.0328211, No Iterations 1
ExecutionTime = 0.28 s  ClockTime = 3 s

Iteration: 150

creating matrix for the layer 1
Data = [
1	1.125e+09
2	2.25e+09
3	2.25e+09
4	1.125e+09
1	0	-1.125e+09
2	1	-1.125e+09
3	2	-1.125e+09
];
 Matrix = sparse(Data(:,1), Data(:,2), Data(:,3));
Source = [
1	0	0	-7.46041e+30
2	0	0	-2.07095e+31
3	0	0	-2.27529e+31
4	0	0	-9.50386e+30
];
Source size = 4
[...]
ExecutionTime = 1.5 s  ClockTime = 16 s

Iteration: 899

creating matrix for the layer 1
Data = [
1	1.125e+09
2	2.25e+09
3	2.25e+09
4	1.125e+09
1	0	-1.125e+09
2	1	-1.125e+09
3	2	-1.125e+09
];
 Matrix = sparse(Data(:,1), Data(:,2), Data(:,3));
Source = [
1	0	0	-3.99756e+148
2	0	0	-1.09024e+149
3	0	0	-1.18251e+149
4	0	0	-4.92022e+148
];
Source size = 4
GAMG:  Solving for Dx, Initial residual = 0, Final residual = 0, No Iterations 0
GAMG:  Solving for Dz, Initial residual = 0.129281, Final residual = 0.0359274, No Iterations 1
ExecutionTime = 1.5 s  ClockTime = 16 s

Iteration: 900

creating matrix for the layer 1
Data = [
1	1.125e+09
2	2.25e+09
3	2.25e+09
4	1.125e+09
1	0	-1.125e+09
2	1	-1.125e+09
3	2	-1.125e+09
];
 Matrix = sparse(Data(:,1), Data(:,2), Data(:,3));
Source = [
1	0	0	-5.74088e+148
2	0	0	-1.56569e+149
3	0	0	-1.69819e+149
4	0	0	-7.06589e+148
];
Source size = 4
GAMG:  Solving for Dx, Initial residual = 0, Final residual = 0, No Iterations 0
GAMG:  Solving for Dz, Initial residual = 0.129281, Final residual = 0.0359274, No Iterations 1
ExecutionTime = 1.5 s  ClockTime = 16 s

Iteration: 901

creating matrix for the layer 1
Data = [
1	1.125e+09
2	2.25e+09
3	2.25e+09
4	1.125e+09
1	0	-1.125e+09
2	1	-1.125e+09
3	2	-1.125e+09
];
 Matrix = sparse(Data(:,1), Data(:,2), Data(:,3));
Source = [
1	0	0	-8.24443e+148
2	0	0	-2.24847e+149
3	0	0	-2.43876e+149
4	0	0	-1.01473e+149
];
Source size = 4
GAMG:  Solving for Dx, Initial residual = 0, Final residual = 0, No Iterations 0
GAMG:  Solving for Dz, Initial residual = 0.129281, Final residual = 0.0359274, No Iterations 1
ExecutionTime = 1.51 s  ClockTime = 16 s

Iteration: 902

creating matrix for the layer 1
Data = [
1	1.125e+09
2	2.25e+09
3	2.25e+09
4	1.125e+09
1	0	-1.125e+09
2	1	-1.125e+09
3	2	-1.125e+09
];
 Matrix = sparse(Data(:,1), Data(:,2), Data(:,3));
Source = [
1	0	0	-1.18398e+149
2	0	0	-3.22902e+149
3	0	0	-3.50229e+149
4	0	0	-1.45724e+149
];
Source size = 4
GAMG:  Solving for Dx, Initial residual = 0, Final residual = 0, No Iterations 0
GAMG:  Solving for Dz, Initial residual = 0.129281, Final residual = 0.0359274, No Iterations 1
ExecutionTime = 1.51 s  ClockTime = 16 s

Iteration: 903

creating matrix for the layer 1
Data = [
1	1.125e+09
2	2.25e+09
3	2.25e+09
4	1.125e+09
1	0	-1.125e+09
2	1	-1.125e+09
3	2	-1.125e+09
];
 Matrix = sparse(Data(:,1), Data(:,2), Data(:,3));
Source = [
1	0	0	-1.7003e+149
2	0	0	-4.63717e+149
3	0	0	-5.02961e+149
4	0	0	-2.09274e+149
];
Source size = 4
GAMG:  Solving for Dx, Initial residual = 0, Final residual = 0, No Iterations 0
GAMG:  Solving for Dz, Initial residual = 0.129281, Final residual = 0.0359274, No Iterations 1
ExecutionTime = 1.51 s  ClockTime = 16 s

Iteration: 904

creating matrix for the layer 1
Data = [
1	1.125e+09
2	2.25e+09
3	2.25e+09
4	1.125e+09
1	0	-1.125e+09
2	1	-1.125e+09
3	2	-1.125e+09
];
 Matrix = sparse(Data(:,1), Data(:,2), Data(:,3));
Source = [
1	0	0	-2.44179e+149
2	0	0	-6.65941e+149
3	0	0	-7.22299e+149
4	0	0	-3.00537e+149
];
Source size = 4
GAMG:  Solving for Dx, Initial residual = 0, Final residual = 0, No Iterations 0
GAMG:  Solving for Dz, Initial residual = 0.129281, Final residual = 0.0359274, No Iterations 1
ExecutionTime = 1.51 s  ClockTime = 17 s

Iteration: 905

creating matrix for the layer 1
Data = [
1	1.125e+09
2	2.25e+09
3	2.25e+09
4	1.125e+09
1	0	-1.125e+09
2	1	-1.125e+09
3	2	-1.125e+09
];
 Matrix = sparse(Data(:,1), Data(:,2), Data(:,3));
Source = [
1	0	0	-3.50664e+149
2	0	0	-9.56353e+149
3	0	0	-1.03729e+150
4	0	0	-4.31598e+149
];
Source size = 4
GAMG:  Solving for Dx, Initial residual = 0, Final residual = 0, No Iterations 0
GAMG:  Solving for Dz, Initial residual = 0.129281, Final residual = 0.0359274, No Iterations 1
ExecutionTime = 1.51 s  ClockTime = 17 s

Iteration: 906

creating matrix for the layer 1
Data = [
1	1.125e+09
2	2.25e+09
3	2.25e+09
4	1.125e+09
1	0	-1.125e+09
2	1	-1.125e+09
3	2	-1.125e+09
];
 Matrix = sparse(Data(:,1), Data(:,2), Data(:,3));
Source = [
1	0	0	-5.03586e+149
2	0	0	-1.37341e+150
3	0	0	-1.48964e+150
4	0	0	-6.19816e+149
];
Source size = 4
GAMG:  Solving for Dx, Initial residual = 0, Final residual = 0, No Iterations 0
GAMG:  Solving for Dz, Initial residual = 0.129281, Final residual = 0.0359274, No Iterations 1
ExecutionTime = 1.51 s  ClockTime = 17 s

Iteration: 907

creating matrix for the layer 1
Data = [
1	1.125e+09
2	2.25e+09
3	2.25e+09
4	1.125e+09
1	0	-1.125e+09
2	1	-1.125e+09
3	2	-1.125e+09
];
 Matrix = sparse(Data(:,1), Data(:,2), Data(:,3));
Source = [
1	0	0	-7.23196e+149
2	0	0	-1.97235e+150
3	0	0	-2.13926e+150
4	0	0	-8.90113e+149
];
Source size = 4
GAMG:  Solving for Dx, Initial residual = 0, Final residual = 0, No Iterations 0
GAMG:  Solving for Dz, Initial residual = 0.129281, Final residual = 0.0359274, No Iterations 1
ExecutionTime = 1.52 s  ClockTime = 17 s

Iteration: 908

creating matrix for the layer 1
Data = [
1	1.125e+09
2	2.25e+09
3	2.25e+09
4	1.125e+09
1	0	-1.125e+09
2	1	-1.125e+09
3	2	-1.125e+09
];
 Matrix = sparse(Data(:,1), Data(:,2), Data(:,3));
Source = [
1	0	0	-1.03858e+150
2	0	0	-2.83248e+150
3	0	0	-3.07218e+150
4	0	0	-1.27828e+150
];
Source size = 4
GAMG:  Solving for Dx, Initial residual = 0, Final residual = 0, No Iterations 0
GAMG:  Solving for Dz, Initial residual = 0.129281, Final residual = 0.0359274, No Iterations 1
ExecutionTime = 1.52 s  ClockTime = 17 s

Iteration: 909

creating matrix for the layer 1
Data = [
1	1.125e+09
2	2.25e+09
3	2.25e+09
4	1.125e+09
1	0	-1.125e+09
2	1	-1.125e+09
3	2	-1.125e+09
];
 Matrix = sparse(Data(:,1), Data(:,2), Data(:,3));
Source = [
1	0	0	-1.49149e+150
2	0	0	-4.0677e+150
3	0	0	-4.41194e+150
4	0	0	-1.83574e+150
];
Source size = 4
GAMG:  Solving for Dx, Initial residual = 0, Final residual = 0, No Iterations 0
GAMG:  Solving for Dz, Initial residual = 0.129281, Final residual = 0.0359274, No Iterations 1
ExecutionTime = 1.52 s  ClockTime = 17 s

Iteration: 910

creating matrix for the layer 1
Data = [
1	1.125e+09
2	2.25e+09
3	2.25e+09
4	1.125e+09
1	0	-1.125e+09
2	1	-1.125e+09
3	2	-1.125e+09
];
 Matrix = sparse(Data(:,1), Data(:,2), Data(:,3));
Source = [
1	0	0	-2.14192e+150
2	0	0	-5.84159e+150
3	0	0	-6.33596e+150
4	0	0	-2.63629e+150
];
Source size = 4
GAMG:  Solving for Dx, Initial residual = 0, Final residual = 0, No Iterations 0
GAMG:  Solving for Dz, Initial residual = 0.129281, Final residual = 0.0359274, No Iterations 1
ExecutionTime = 1.52 s  ClockTime = 17 s

Iteration: 911

creating matrix for the layer 1
Data = [
1	1.125e+09
2	2.25e+09
3	2.25e+09
4	1.125e+09
1	0	-1.125e+09
2	1	-1.125e+09
3	2	-1.125e+09
];
 Matrix = sparse(Data(:,1), Data(:,2), Data(:,3));
Source = [
1	0	0	-3.076e+150
2	0	0	-8.38907e+150
3	0	0	-9.09903e+150
4	0	0	-3.78596e+150
];
Source size = 4
GAMG:  Solving for Dx, Initial residual = 0, Final residual = 0, No Iterations 0
GAMG:  Solving for Dz, Initial residual = 0.129281, Final residual = 0.0359274, No Iterations 1
ExecutionTime = 1.52 s  ClockTime = 17 s

Iteration: 912

creating matrix for the layer 1
Data = [
1	1.125e+09
2	2.25e+09
3	2.25e+09
4	1.125e+09
1	0	-1.125e+09
2	1	-1.125e+09
3	2	-1.125e+09
];
 Matrix = sparse(Data(:,1), Data(:,2), Data(:,3));
Source = [
1	0	0	-4.41743e+150
2	0	0	-1.20475e+151
3	0	0	-1.3067e+151
4	0	0	-5.43698e+150
];
Source size = 4
GAMG:  Solving for Dx, Initial residual = 0, Final residual = 0, No Iterations 0
GAMG:  Solving for Dz, Initial residual = 0.129281, Final residual = 0.0359274, No Iterations 1
ExecutionTime = 1.52 s  ClockTime = 17 s

Iteration: 913

creating matrix for the layer 1
Data = [
1	1.125e+09
2	2.25e+09
3	2.25e+09
4	1.125e+09
1	0	-1.125e+09
2	1	-1.125e+09
3	2	-1.125e+09
];
 Matrix = sparse(Data(:,1), Data(:,2), Data(:,3));
Source = [
1	0	0	-6.34383e+150
2	0	0	-1.73013e+151
3	0	0	-1.87655e+151
4	0	0	-7.80802e+150
];
Source size = 4
GAMG:  Solving for Dx, Initial residual = 0, Final residual = 0, No Iterations 0
GAMG:  Solving for Dz, Initial residual = 0.129281, Final residual = 0.0359274, No Iterations 1
ExecutionTime = 1.52 s  ClockTime = 17 s

Iteration: 914

creating matrix for the layer 1
Data = [
1	1.125e+09
2	2.25e+09
3	2.25e+09
4	1.125e+09
1	0	-1.125e+09
2	1	-1.125e+09
3	2	-1.125e+09
];
 Matrix = sparse(Data(:,1), Data(:,2), Data(:,3));
Source = [
1	0	0	-9.11034e+150
2	0	0	-2.48463e+151
3	0	0	-2.6949e+151
4	0	0	-1.1213e+151
];
Source size = 4
GAMG:  Solving for Dx, Initial residual = 0, Final residual = 0, No Iterations 0
GAMG:  Solving for Dz, Initial residual = 0.129281, Final residual = 0.0359274, No Iterations 1
ExecutionTime = 1.52 s  ClockTime = 17 s

Iteration: 915

creating matrix for the layer 1
Data = [
1	1.125e+09
2	2.25e+09
3	2.25e+09
4	1.125e+09
1	0	-1.125e+09
2	1	-1.125e+09
3	2	-1.125e+09
];
 Matrix = sparse(Data(:,1), Data(:,2), Data(:,3));
Source = [
1	0	0	-1.30833e+151
2	0	0	-3.56816e+151
3	0	0	-3.87013e+151
4	0	0	-1.6103e+151
];
Source size = 4
GAMG:  Solving for Dx, Initial residual = 0, Final residual = 0, No Iterations 0
GAMG:  Solving for Dz, Initial residual = 0.129281, Final residual = 0.0359274, No Iterations 1
ExecutionTime = 1.53 s  ClockTime = 17 s

Iteration: 916

creating matrix for the layer 1
Data = [
1	1.125e+09
2	2.25e+09
3	2.25e+09
4	1.125e+09
1	0	-1.125e+09
2	1	-1.125e+09
3	2	-1.125e+09
];
 Matrix = sparse(Data(:,1), Data(:,2), Data(:,3));
Source = [
1	0	0	-1.87888e+151
2	0	0	-5.12421e+151
3	0	0	-5.55786e+151
4	0	0	-2.31254e+151
];
Source size = 4
GAMG:  Solving for Dx, Initial residual = 0, Final residual = 0, No Iterations 0
GAMG:  Solving for Dz, Initial residual = 0.129281, Final residual = 0.0359274, No Iterations 1
ExecutionTime = 1.53 s  ClockTime = 17 s

Iteration: 917

creating matrix for the layer 1
Data = [
1	1.125e+09
2	2.25e+09
3	2.25e+09
4	1.125e+09
1	0	-1.125e+09
2	1	-1.125e+09
3	2	-1.125e+09
];
 Matrix = sparse(Data(:,1), Data(:,2), Data(:,3));
Source = [
1	0	0	-2.69825e+151
2	0	0	-7.35884e+151
3	0	0	-7.98161e+151
4	0	0	-3.32102e+151
];
Source size = 4
GAMG:  Solving for Dx, Initial residual = 0, Final residual = 0, No Iterations 0
GAMG:  Solving for Dz, Initial residual = 0.129281, Final residual = 0.0359274, No Iterations 1
ExecutionTime = 1.53 s  ClockTime = 17 s

Iteration: 918

creating matrix for the layer 1
Data = [
1	1.125e+09
2	2.25e+09
3	2.25e+09
4	1.125e+09
1	0	-1.125e+09
2	1	-1.125e+09
3	2	-1.125e+09
];
 Matrix = sparse(Data(:,1), Data(:,2), Data(:,3));
Source = [
1	0	0	-3.87494e+151
2	0	0	-1.0568e+152
3	0	0	-1.14623e+152
4	0	0	-4.76929e+151
];
Source size = 4
GAMG:  Solving for Dx, Initial residual = 0, Final residual = 0, No Iterations 0
GAMG:  Solving for Dz, Initial residual = 0.129281, Final residual = 0.0359274, No Iterations 1
ExecutionTime = 1.53 s  ClockTime = 17 s

Iteration: 919

creating matrix for the layer 1
Data = [
1	1.125e+09
2	2.25e+09
3	2.25e+09
4	1.125e+09
1	0	-1.125e+09
2	1	-1.125e+09
3	2	-1.125e+09
];
 Matrix = sparse(Data(:,1), Data(:,2), Data(:,3));
Source = [
1	0	0	-5.56477e+151
2	0	0	-1.51766e+152
3	0	0	-1.6461e+152
4	0	0	-6.84914e+151
];
Source size = 4
GAMG:  Solving for Dx, Initial residual = 0, Final residual = 0, No Iterations 0
GAMG:  Solving for Dz, Initial residual = 0.129281, Final residual = 0.0359274, No Iterations 1
ExecutionTime = 1.54 s  ClockTime = 17 s

Iteration: 920

creating matrix for the layer 1
Data = [
1	1.125e+09
2	2.25e+09
3	2.25e+09
4	1.125e+09
1	0	-1.125e+09
2	1	-1.125e+09
3	2	-1.125e+09
];
 Matrix = sparse(Data(:,1), Data(:,2), Data(:,3));
Source = [
1	0	0	-7.99153e+151
2	0	0	-2.1795e+152
3	0	0	-2.36395e+152
4	0	0	-9.83601e+151
];
Source size = 4
GAMG:  Solving for Dx, Initial residual = 0, Final residual = 0, No Iterations 0
GAMG:  Solving for Dz, Initial residual = 0.129281, Final residual = 0.0359274, No Iterations 1
ExecutionTime = 1.54 s  ClockTime = 17 s

Iteration: 921

creating matrix for the layer 1
Data = [
1	1.125e+09
2	2.25e+09
3	2.25e+09
4	1.125e+09
1	0	-1.125e+09
2	1	-1.125e+09
3	2	-1.125e+09
];
 Matrix = sparse(Data(:,1), Data(:,2), Data(:,3));
Source = [
1	0	0	-1.14766e+152
2	0	0	-3.12997e+152
3	0	0	-3.39485e+152
4	0	0	-1.41254e+152
];
Source size = 4
GAMG:  Solving for Dx, Initial residual = 0, Final residual = 0, No Iterations 0
GAMG:  Solving for Dz, Initial residual = 0.129281, Final residual = 0.0359274, No Iterations 1
ExecutionTime = 1.54 s  ClockTime = 17 s

Iteration: 922

creating matrix for the layer 1
Data = [
1	1.125e+09
2	2.25e+09
3	2.25e+09
4	1.125e+09
1	0	-1.125e+09
2	1	-1.125e+09
3	2	-1.125e+09
];
 Matrix = sparse(Data(:,1), Data(:,2), Data(:,3));
Source = [
1	0	0	-1.64814e+152
2	0	0	-4.49493e+152
3	0	0	-4.87532e+152
4	0	0	-2.02854e+152
];
Source size = 4
GAMG:  Solving for Dx, Initial residual = 0, Final residual = 0, No Iterations 0
GAMG:  Solving for Dz, Initial residual = 0.129281, Final residual = 0.0359274, No Iterations 1
ExecutionTime = 1.54 s  ClockTime = 17 s

Iteration: 923

creating matrix for the layer 1
Data = [
1	1.125e+09
2	2.25e+09
3	2.25e+09
4	1.125e+09
1	0	-1.125e+09
2	1	-1.125e+09
3	2	-1.125e+09
];
 Matrix = sparse(Data(:,1), Data(:,2), Data(:,3));
Source = [
1	0	0	-2.36689e+152
2	0	0	-6.45513e+152
3	0	0	-7.00142e+152
4	0	0	-2.91318e+152
];
Source size = 4
GAMG:  Solving for Dx, Initial residual = 0, Final residual = 0, No Iterations 0
GAMG:  Solving for Dz, Initial residual = 0.129281, Final residual = 0.0359274, No Iterations 1
ExecutionTime = 1.54 s  ClockTime = 17 s

Iteration: 924

creating matrix for the layer 1
Data = [
1	1.125e+09
2	2.25e+09
3	2.25e+09
4	1.125e+09
1	0	-1.125e+09
2	1	-1.125e+09
3	2	-1.125e+09
];
 Matrix = sparse(Data(:,1), Data(:,2), Data(:,3));
Source = [
1	0	0	-3.39907e+152
2	0	0	-9.27017e+152
3	0	0	-1.00547e+153
4	0	0	-4.18359e+152
];
Source size = 4
GAMG:  Solving for Dx, Initial residual = 0, Final residual = 0, No Iterations 0
GAMG:  Solving for Dz, Initial residual = 0.129281, Final residual = 0.0359274, No Iterations 1
ExecutionTime = 1.54 s  ClockTime = 17 s

Iteration: 925

creating matrix for the layer 1
Data = [
1	1.125e+09
2	2.25e+09
3	2.25e+09
4	1.125e+09
1	0	-1.125e+09
2	1	-1.125e+09
3	2	-1.125e+09
];
 Matrix = sparse(Data(:,1), Data(:,2), Data(:,3));
Source = [
1	0	0	-4.88138e+152
2	0	0	-1.33128e+153
3	0	0	-1.44395e+153
4	0	0	-6.00803e+152
];
Source size = 4
GAMG:  Solving for Dx, Initial residual = 0, Final residual = 0, No Iterations 0
GAMG:  Solving for Dz, Initial residual = 0.129281, Final residual = 0.0359274, No Iterations 1
ExecutionTime = 1.54 s  ClockTime = 17 s

Iteration: 926

creating matrix for the layer 1
Data = [
1	1.125e+09
2	2.25e+09
3	2.25e+09
4	1.125e+09
1	0	-1.125e+09
2	1	-1.125e+09
3	2	-1.125e+09
];
 Matrix = sparse(Data(:,1), Data(:,2), Data(:,3));
Source = [
1	0	0	-7.01012e+152
2	0	0	-1.91185e+153
3	0	0	-2.07364e+153
4	0	0	-8.62809e+152
];
Source size = 4
GAMG:  Solving for Dx, Initial residual = 0, Final residual = 0, No Iterations 0
GAMG:  Solving for Dz, Initial residual = 0.129281, Final residual = 0.0359274, No Iterations 1
ExecutionTime = 1.54 s  ClockTime = 17 s

Iteration: 927

creating matrix for the layer 1
Data = [
1	1.125e+09
2	2.25e+09
3	2.25e+09
4	1.125e+09
1	0	-1.125e+09
2	1	-1.125e+09
3	2	-1.125e+09
];
 Matrix = sparse(Data(:,1), Data(:,2), Data(:,3));
Source = [
1	0	0	-1.00672e+153
2	0	0	-2.74559e+153
3	0	0	-2.97794e+153
4	0	0	-1.23907e+153
];
Source size = 4
GAMG:  Solving for Dx, Initial residual = 0, Final residual = 0, No Iterations 0
GAMG:  Solving for Dz, Initial residual = 0.129281, Final residual = 0.0359274, No Iterations 1
ExecutionTime = 1.54 s  ClockTime = 17 s

Iteration: 928

creating matrix for the layer 1
Data = [
1	1.125e+09
2	2.25e+09
3	2.25e+09
4	1.125e+09
1	0	-1.125e+09
2	1	-1.125e+09
3	2	-1.125e+09
];
 Matrix = sparse(Data(:,1), Data(:,2), Data(:,3));
Source = [
1	0	0	-1.44574e+153
2	0	0	-3.94292e+153
3	0	0	-4.2766e+153
4	0	0	-1.77942e+153
];
Source size = 4
GAMG:  Solving for Dx, Initial residual = 0, Final residual = 0, No Iterations 0
GAMG:  Solving for Dz, Initial residual = 0.129281, Final residual = 0.0359274, No Iterations 1
ExecutionTime = 1.54 s  ClockTime = 17 s

Iteration: 929

creating matrix for the layer 1
Data = [
1	1.125e+09
2	2.25e+09
3	2.25e+09
4	1.125e+09
1	0	-1.125e+09
2	1	-1.125e+09
3	2	-1.125e+09
];
 Matrix = sparse(Data(:,1), Data(:,2), Data(:,3));
Source = [
1	0	0	-2.07622e+153
2	0	0	-5.6624e+153
3	0	0	-6.1416e+153
4	0	0	-2.55542e+153
];
Source size = 4
GAMG:  Solving for Dx, Initial residual = 0, Final residual = 0, No Iterations 0
GAMG:  Solving for Dz, Initial residual = 0.129281, Final residual = 0.0359274, No Iterations 1
ExecutionTime = 1.54 s  ClockTime = 17 s

Iteration: 930

creating matrix for the layer 1
Data = [
1	1.125e+09
2	2.25e+09
3	2.25e+09
4	1.125e+09
1	0	-1.125e+09
2	1	-1.125e+09
3	2	-1.125e+09
];
 Matrix = sparse(Data(:,1), Data(:,2), Data(:,3));
Source = [
1	0	0	-2.98165e+153
2	0	0	-8.13174e+153
3	0	0	-8.81991e+153
4	0	0	-3.66982e+153
];
Source size = 4
GAMG:  Solving for Dx, Initial residual = 0, Final residual = 0, No Iterations 0
GAMG:  Solving for Dz, Initial residual = 0.129281, Final residual = 0.0359274, No Iterations 1
ExecutionTime = 1.54 s  ClockTime = 17 s

Iteration: 931

creating matrix for the layer 1
Data = [
1	1.125e+09
2	2.25e+09
3	2.25e+09
4	1.125e+09
1	0	-1.125e+09
2	1	-1.125e+09
3	2	-1.125e+09
];
 Matrix = sparse(Data(:,1), Data(:,2), Data(:,3));
Source = [
1	0	0	-4.28192e+153
2	0	0	-1.16779e+154
3	0	0	-1.26662e+154
4	0	0	-5.2702e+153
];
Source size = 4
GAMG:  Solving for Dx, Initial residual = 0, Final residual = 0, No Iterations 0
GAMG:  Solving for Dz, Initial residual = 0.129281, Final residual = 0.0359274, No Iterations 1
ExecutionTime = 1.55 s  ClockTime = 17 s

Iteration: 932

creating matrix for the layer 1
Data = [
1	1.125e+09
2	2.25e+09
3	2.25e+09
4	1.125e+09
1	0	-1.125e+09
2	1	-1.125e+09
3	2	-1.125e+09
];
 Matrix = sparse(Data(:,1), Data(:,2), Data(:,3));
Source = [
1	0	0	-6.14924e+153
2	0	0	-1.67706e+154
3	0	0	-1.81899e+154
4	0	0	-7.5685e+153
];
Source size = 4
GAMG:  Solving for Dx, Initial residual = 0, Final residual = 0, No Iterations 0
GAMG:  Solving for Dz, Initial residual = 0.129281, Final residual = 0.0359274, No Iterations 1
ExecutionTime = 1.55 s  ClockTime = 17 s

Iteration: 933

creating matrix for the layer 1
Data = [
1	1.125e+09
2	2.25e+09
3	2.25e+09
4	1.125e+09
1	0	-1.125e+09
2	1	-1.125e+09
3	2	-1.125e+09
];
 Matrix = sparse(Data(:,1), Data(:,2), Data(:,3));
Source = [
1	0	0	-8.83088e+153
2	0	0	-2.40841e+154
3	0	0	-2.61223e+154
4	0	0	-1.08691e+154
];
Source size = 4
GAMG:  Solving for Dx, Initial residual = 0, Final residual = 0, No Iterations 0
#0  Foam::error::printStack(Foam::Ostream&) at ??:?
#1  Foam::sigFpe::sigHandler(int) at ??:?
#2  ? in /lib/x86_64-linux-gnu/libpthread.so.0
#3  Foam::scalarProduct<double, double>::type Foam::sumProd<double>(Foam::UList<double> const&, Foam::UList<double> const&) at ??:?
#4  Foam::PBiCGStab::scalarSolve(Foam::Field<double>&, Foam::Field<double> const&, unsigned char) const at ??:?
#5  Foam::GAMGSolver::solveCoarsestLevel(Foam::Field<double>&, Foam::Field<double> const&) const at ??:?
#6  Foam::GAMGSolver::Vcycle(Foam::PtrList<Foam::lduMatrix::smoother> const&, Foam::Field<double>&, Foam::Field<double> const&, Foam::Field<double>&, Foam::Field<double>&, Foam::Field<double>&, Foam::Field<double>&, Foam::Field<double>&, Foam::PtrList<Foam::Field<double> >&, Foam::PtrList<Foam::Field<double> >&, unsigned char) const at ??:?
#7  Foam::GAMGSolver::solve(Foam::Field<double>&, Foam::Field<double> const&, unsigned char) const at ??:?
#8  Foam::fvMatrix<Foam::Vector<double> >::solveSegregated(Foam::dictionary const&) at ??:?
#9  Foam::fvMatrix<Foam::Vector<double> >::solveSegregatedOrCoupled(Foam::dictionary const&) at ??:?
#10  Foam::fvMesh::solve(Foam::fvMatrix<Foam::Vector<double> >&, Foam::dictionary const&) const at ??:?
#11  ? in ~/OpenFOAM/openfoam-v2106/platforms/linux64GccDPInt32Opt/bin/polymerSolidFoam
#12  __libc_start_main in /lib/x86_64-linux-gnu/libc.so.6
#13  ? in ~/OpenFOAM/openfoam-v2106/platforms/linux64GccDPInt32Opt/bin/polymerSolidFoam
